data_DFT_optimized
_symmetry_space_group_name_H-M 'I 4 3 2'
_space_group_IT_number         211
_cell_length_a                 28.52123014
_cell_length_b                 28.52123014
_cell_length_c                 28.52123014
_cell_angle_alpha              90.000000
_cell_angle_beta               90.000000
_cell_angle_gamma              90.000000
loop_
_atom_site_label
_atom_site_type_symbol
_atom_site_fract_x
_atom_site_fract_y
_atom_site_fract_z
Zr1 Zr -1.143306439251E-17 -4.143108074780E-01 1.148432163240E-17
Zr2 Zr -5.863304733937E-02 5.000000000000E-01 -5.863304733937E-02
C3 C 8.006498558636E-02 -3.875279047324E-01 7.944889024351E-02
C4 C 1.065077010430E-01 -3.499115053968E-01 1.052243411620E-01
C5 C 9.654686198647E-02 -3.025558807702E-01 9.589389114430E-02
C6 C 1.207275338350E-01 -2.672662319730E-01 1.196821217538E-01
C7 C 1.553752367909E-01 -2.783444070265E-01 1.531921825954E-01
C8 C 1.653511720867E-01 -3.258272466482E-01 1.623713605854E-01
C9 C 1.411073000799E-01 -3.612000592257E-01 1.385603783023E-01
C10 C 1.796458708870E-01 -2.392040030934E-01 1.780719625944E-01
C11 C 1.585003412006E-01 -2.201578644528E-01 2.187333909158E-01
C12 C 1.145835629733E-01 -2.424115248765E-01 2.384748669176E-01
H13 H 6.967353297645E-02 -2.944398439368E-01 6.981997836863E-02
H14 H 1.130825060497E-01 -2.303460296271E-01 1.125498526879E-01
H15 H 1.923540501942E-01 -3.346304460366E-01 1.881980887608E-01
H16 H 1.487528124626E-01 -3.980960357269E-01 1.456117115109E-01
H17 H 1.065499550719E-01 -2.289838712237E-01 2.736835307632E-01
H18 H 1.181125744343E-01 -2.808623479686E-01 2.401820008793E-01
H19 H 8.392608500288E-02 -2.354411829081E-01 2.158835763769E-01
H20 H -1.500691923655E-01 4.716518260604E-01 -7.911532088601E-02
H21 H -1.501417345978E-01 -4.719176336547E-01 -7.889093872116E-02
O22 O 4.986519115270E-02 -3.743852109352E-01 4.960072645738E-02
O23 O 9.061182450997E-02 -4.301979800331E-01 9.019688045660E-02
O24 O -6.229299708198E-02 -4.567285414884E-01 3.179195091040E-05
O25 O -1.423684951170E-01 4.998036133262E-01 -6.106659147207E-02

