data_DFT_optimized
_symmetry_space_group_name_H-M 'I 4 3 2'
_space_group_IT_number         211
_cell_length_a                 28.73718421
_cell_length_b                 28.73718421
_cell_length_c                 28.73718421
_cell_angle_alpha              90.000000
_cell_angle_beta               90.000000
_cell_angle_gamma              90.000000
loop_
_atom_site_label
_atom_site_type_symbol
_atom_site_fract_x
_atom_site_fract_y
_atom_site_fract_z
Zr1 Zr -5.040464177625E-18 -4.147410589817E-01 5.050641475582E-18
Zr2 Zr -5.835252245151E-02 5.000000000000E-01 -5.835252245151E-02
C3 C 7.915089467068E-02 -3.868652353441E-01 7.884096496726E-02
C4 C 1.041334271416E-01 -3.478554152874E-01 1.034610885089E-01
C5 C 9.296782897497E-02 -3.014967768469E-01 9.230187057416E-02
C6 C 1.156037772455E-01 -2.647176239377E-01 1.146192874871E-01
C7 C 1.500877728891E-01 -2.730915469204E-01 1.485786675563E-01
C8 C 1.611629768152E-01 -3.196090626332E-01 1.596392862372E-01
C9 C 1.384505292548E-01 -3.564957041469E-01 1.373105612601E-01
C10 C 1.732784149495E-01 -2.326984425842E-01 1.720109421374E-01
C11 C 1.523671673394E-01 -2.134694448068E-01 2.123797592994E-01
C12 C 1.089800575456E-01 -2.357559833853E-01 2.323274459384E-01
H13 H 6.632967424395E-02 -2.951996322051E-01 6.590559083502E-02
H14 H 1.068059734438E-01 -2.287136972766E-01 1.058040646607E-01
H15 H 1.879518649427E-01 -3.266263761627E-01 1.858245367805E-01
H16 H 1.471951523030E-01 -3.925133547392E-01 1.459590562171E-01
H17 H 9.900665808387E-02 -2.199090803421E-01 2.656527537275E-01
H18 H 1.140247168298E-01 -2.734275796494E-01 2.376698868712E-01
H19 H 7.925351992194E-02 -2.323940515201E-01 2.082290863347E-01
H20 H -1.493876559421E-01 4.719424096121E-01 -7.998753975963E-02
H21 H -1.493601843227E-01 -4.719779599767E-01 -7.990434071272E-02
O22 O 4.896365167572E-02 -3.750095997561E-01 4.885556702417E-02
O23 O 9.036922827283E-02 -4.288485602256E-01 9.013908987741E-02
O24 O -6.199511863647E-02 -4.571821809462E-01 1.308151534832E-05
O25 O -1.412753855092E-01 4.999490573660E-01 -6.239268613424E-02

