data_DFT_optimized
_symmetry_space_group_name_H-M 'I 4 3 2'
_space_group_IT_number         211
_cell_length_a                 28.51582199
_cell_length_b                 28.51582199
_cell_length_c                 28.51582199
_cell_angle_alpha              90.000000
_cell_angle_beta               90.000000
_cell_angle_gamma              90.000000
loop_
_atom_site_label
_atom_site_type_symbol
_atom_site_fract_x
_atom_site_fract_y
_atom_site_fract_z
Zr1 Zr -1.649760770255E-17 -4.149402561394E-01 1.648486860238E-17
Zr2 Zr -5.848083767269E-02 5.000000000000E-01 -5.848083767269E-02
C3 C 7.895599413444E-02 -3.870410550621E-01 7.860139461977E-02
C4 C 1.041349880350E-01 -3.479404253123E-01 1.033486187197E-01
C5 C 9.288001790204E-02 -3.015880790457E-01 9.234843595604E-02
C6 C 1.156064419921E-01 -2.648256828033E-01 1.147259446458E-01
C7 C 1.501426444268E-01 -2.733311901184E-01 1.485680423165E-01
C8 C 1.613426058140E-01 -3.198559380873E-01 1.594494576307E-01
C9 C 1.385610412830E-01 -3.567161119717E-01 1.370348019179E-01
C10 C 1.734229025264E-01 -2.328299144122E-01 1.721333529569E-01
C11 C 1.525112726458E-01 -2.136092928314E-01 2.125030826413E-01
C12 C 1.088857704593E-01 -2.358116129268E-01 2.323787860349E-01
H13 H 6.614803072124E-02 -2.952106226112E-01 6.604937396692E-02
H14 H 1.067894797304E-01 -2.287830121051E-01 1.060184555833E-01
H15 H 1.882075673498E-01 -3.269215982814E-01 1.855657944588E-01
H16 H 1.473761823333E-01 -3.927615590526E-01 1.455473621306E-01
H17 H 9.983087262312E-02 -2.210345150559E-01 2.664794549365E-01
H18 H 1.132447991922E-01 -2.737608113323E-01 2.361457422893E-01
H19 H 7.885172109584E-02 -2.307368852237E-01 2.089367707636E-01
H20 H -1.509441985065E-01 4.719167186621E-01 -7.860724580295E-02
H21 H -1.510169719508E-01 -4.721203209877E-01 -7.850848910273E-02
O22 O 4.894510568113E-02 -3.750682313268E-01 4.881326005244E-02
O23 O 9.011843804182E-02 -4.287835951476E-01 8.987312368744E-02
O24 O -6.194218074196E-02 -4.572571201068E-01 1.770002778681E-05
O25 O -1.413020974506E-01 4.998815907593E-01 -6.212994382169E-02

