data_DFT_optimized
_symmetry_space_group_name_H-M 'I 4 3 2'
_space_group_IT_number         211
_cell_length_a                 28.31610526
_cell_length_b                 28.31610526
_cell_length_c                 28.31610526
_cell_angle_alpha              90.000000
_cell_angle_beta               90.000000
_cell_angle_gamma              90.000000
loop_
_atom_site_label
_atom_site_type_symbol
_atom_site_fract_x
_atom_site_fract_y
_atom_site_fract_z
Zr1 Zr -1.637398124809E-17 -4.145197297216E-01 1.637398091797E-17
Zr2 Zr -5.874094713464E-02 5.000000000000E-01 -5.874094713464E-02
C3 C 7.967726155304E-02 -3.876503853159E-01 7.923213339290E-02
C4 C 1.060831561953E-01 -3.498407191156E-01 1.051662962768E-01
C5 C 9.605174036206E-02 -3.025548060494E-01 9.577061692867E-02
C6 C 1.201483794292E-01 -2.671901810620E-01 1.196143233989E-01
C7 C 1.546878458620E-01 -2.782354926332E-01 1.531894663724E-01
C8 C 1.647220054873E-01 -3.256770430744E-01 1.624550215906E-01
C9 C 1.405589704621E-01 -3.611107463225E-01 1.385865681826E-01
C10 C 1.791122457011E-01 -2.389144191547E-01 1.780265801241E-01
C11 C 1.582163640005E-01 -2.196197786542E-01 2.186397555581E-01
C12 C 1.139286658228E-01 -2.412607898346E-01 2.385453550664E-01
H13 H 6.921832654955E-02 -2.944837077567E-01 6.964658199527E-02
H14 H 1.124447477917E-01 -2.302891399863E-01 1.124379548239E-01
H15 H 1.916124122795E-01 -3.344092485153E-01 1.884235924047E-01
H16 H 1.482206229188E-01 -3.979841343224E-01 1.456994248360E-01
H17 H 1.081592726804E-01 -2.304254069465E-01 2.750826905315E-01
H18 H 1.153597769756E-01 -2.798108356530E-01 2.368908196121E-01
H19 H 8.281019794062E-02 -2.305167059745E-01 2.181651727020E-01
H20 H -1.517246475384E-01 4.716658559377E-01 -7.759491772553E-02
H21 H -1.519278950005E-01 -4.720552410295E-01 -7.746306024628E-02
O22 O 4.969787540702E-02 -3.745057851518E-01 4.951335936145E-02
O23 O 9.027945519602E-02 -4.300108897960E-01 8.997050053442E-02
O24 O -6.222928044108E-02 -4.568464000173E-01 2.350823803549E-05
O25 O -1.423256424366E-01 4.998021184934E-01 -6.078905858089E-02

