data_DFT_optimized
_symmetry_space_group_name_H-M 'P 4 3 2'
_space_group_IT_number         207
_cell_length_a                 28.76744513
_cell_length_b                 28.76744513
_cell_length_c                 28.76744513
_cell_angle_alpha              90.000000
_cell_angle_beta               90.000000
_cell_angle_gamma              90.000000
loop_
_atom_site_label
_atom_site_type_symbol
_atom_site_fract_x
_atom_site_fract_y
_atom_site_fract_z
Zr1 Zr -5.000000000000E-01 8.508389779990E-02 -5.000000000000E-01
Zr2 Zr 4.416443859691E-01 0.000000000000E+00 4.416443859691E-01
C3 C -4.211143845474E-01 1.132496472032E-01 -4.212422518230E-01
C4 C -3.965669142000E-01 1.526520751671E-01 -3.969386702825E-01
C5 C -4.079270216751E-01 1.987515449011E-01 -4.087929043834E-01
C6 C -3.856853803918E-01 2.359633079053E-01 -3.869083285385E-01
C7 C -3.514478964822E-01 2.283199113605E-01 -3.526150266259E-01
C8 C -3.402603946254E-01 1.820637382248E-01 -3.408145391410E-01
C9 C -3.625035677427E-01 1.447316005148E-01 -3.627528897845E-01
C10 C -3.285122863181E-01 2.690459692712E-01 -3.295897485783E-01
C11 C -3.493433200939E-01 2.883764765274E-01 -2.892727035382E-01
C12 C -3.927071999293E-01 2.662178721674E-01 -2.692861915837E-01
H13 H -4.343784287445E-01 2.045147649445E-01 -4.354351330367E-01
H14 H -3.945757411524E-01 2.717354298099E-01 -3.963694735654E-01
H15 H -3.137078271313E-01 1.755986574707E-01 -3.143266868540E-01
H16 H -3.535991082903E-01 1.089286888749E-01 -3.535502766867E-01
H17 H -4.029209782262E-01 2.823760300307E-01 -2.362364235267E-01
H18 H -3.876007693680E-01 2.286900175048E-01 -2.634081766787E-01
H19 H -4.222689270854E-01 2.692101527690E-01 -2.935654001199E-01
H20 H 3.509421279265E-01 -2.805321951766E-02 4.198733537687E-01
H21 H 3.509400877362E-01 2.804663164216E-02 4.198674780082E-01
O22 O -4.512612581680E-01 1.247327200077E-01 -4.513338594201E-01
O23 O -4.097056305912E-01 7.139854122068E-02 -4.097291450797E-01
O24 O 4.380404708725E-01 4.269262258022E-02 -4.999995258884E-01
O25 O 3.588354825847E-01 -1.738349837403E-06 4.374455492261E-01

