data_DFT_optimized
_symmetry_space_group_name_H-M 'P 4 3 2'
_space_group_IT_number         207
_cell_length_a                 28.56706139
_cell_length_b                 28.56706139
_cell_length_c                 28.56706139
_cell_angle_alpha              90.000000
_cell_angle_beta               90.000000
_cell_angle_gamma              90.000000
loop_
_atom_site_label
_atom_site_type_symbol
_atom_site_fract_x
_atom_site_fract_y
_atom_site_fract_z
Zr1 Zr -5.000000000000E-01 8.498602357331E-02 5.000000000000E-01
Zr2 Zr 4.416656651622E-01 0.000000000000E+00 4.416656651622E-01
C3 C -4.213744230841E-01 1.131636536000E-01 -4.215508919635E-01
C4 C -3.967375071355E-01 1.527415036078E-01 -3.971911847721E-01
C5 C -4.081561025086E-01 1.987616911697E-01 -4.090912829618E-01
C6 C -3.859445741466E-01 2.360416002608E-01 -3.872408175078E-01
C7 C -3.517418302416E-01 2.284425746101E-01 -3.529727147108E-01
C8 C -3.404657699479E-01 1.822590309450E-01 -3.411430833063E-01
C9 C -3.626954874339E-01 1.448665923962E-01 -3.630447391493E-01
C10 C -3.287793914259E-01 2.693568800642E-01 -3.299167364634E-01
C11 C -3.496091962852E-01 2.886963316482E-01 -2.896300280411E-01
C12 C -3.931119304598E-01 2.665256829089E-01 -2.697209072179E-01
H13 H -4.346146098168E-01 2.044817425455E-01 -4.357139639593E-01
H14 H -3.948916292880E-01 2.717825529756E-01 -3.967246950948E-01
H15 H -3.139208460072E-01 1.758585456305E-01 -3.146455546672E-01
H16 H -3.537451797062E-01 1.091057380297E-01 -3.537915154323E-01
H17 H -4.034262251492E-01 2.827538642346E-01 -2.367440470632E-01
H18 H -3.879620012367E-01 2.290323823980E-01 -2.637419860576E-01
H19 H -4.225295960150E-01 2.695404651234E-01 -2.941482042101E-01
H20 H 3.496347714825E-01 -2.797111864380E-02 4.211052576843E-01
H21 H 3.497035645055E-01 2.799179599453E-02 4.211201006359E-01
O22 O -4.513592946704E-01 1.246753968294E-01 -4.514351851726E-01
O23 O -4.099752460814E-01 7.161823266626E-02 -4.100633189272E-01
O24 O 4.381453334766E-01 4.263599240721E-02 -4.999914766598E-01
O25 O 3.591140419048E-01 -7.590802353624E-06 4.375667664338E-01

