data_DFT_optimized
_symmetry_space_group_name_H-M 'P 4 3 2'
_space_group_IT_number         207
_cell_length_a                 28.68375431
_cell_length_b                 28.68375431
_cell_length_c                 28.68375431
_cell_angle_alpha              90.000000
_cell_angle_beta               90.000000
_cell_angle_gamma              90.000000
loop_
_atom_site_label
_atom_site_type_symbol
_atom_site_fract_x
_atom_site_fract_y
_atom_site_fract_z
Zr1 Zr 5.000000000000E-01 8.518338591376E-02 5.000000000000E-01
Zr2 Zr 4.417184087451E-01 0.000000000000E+00 4.417184087451E-01
C3 C -4.212083343509E-01 1.131760009201E-01 -4.213920224055E-01
C4 C -3.966738144499E-01 1.526969893554E-01 -3.972245609339E-01
C5 C -4.082272675916E-01 1.988130414586E-01 -4.093460024559E-01
C6 C -3.860017245657E-01 2.362255091680E-01 -3.875492506690E-01
C7 C -3.516809302250E-01 2.286243960432E-01 -3.531829579304E-01
C8 C -3.402869803990E-01 1.823752205598E-01 -3.411344689835E-01
C9 C -3.625152016659E-01 1.448288651809E-01 -3.629678525573E-01
C10 C -3.288807713591E-01 2.694501506269E-01 -3.301602276030E-01
C11 C -3.498930978666E-01 2.887071215875E-01 -2.898048923176E-01
C12 C -3.934364335067E-01 2.665144888422E-01 -2.700060405185E-01
H13 H -4.347880744870E-01 2.043075608928E-01 -4.360840426439E-01
H14 H -3.948971456379E-01 2.720945140207E-01 -3.970381536779E-01
H15 H -3.136396718576E-01 1.761920249143E-01 -3.145347821002E-01
H16 H -3.536056031778E-01 1.089353243195E-01 -3.537007228491E-01
H17 H -4.038250076679E-01 2.827746212968E-01 -2.369352951858E-01
H18 H -3.883321055272E-01 2.288786721645E-01 -2.641359314675E-01
H19 H -4.228900052602E-01 2.695327700576E-01 -2.945784032221E-01
H20 H 3.512996134603E-01 -2.808926486870E-02 4.198736840136E-01
H21 H 3.514116567398E-01 2.821878016467E-02 4.199263815947E-01
O22 O -4.514557094264E-01 1.247059055526E-01 -4.515151995619E-01
O23 O -4.097348124883E-01 7.125400667435E-02 -4.097885318897E-01
O24 O 4.378796211998E-01 4.284433019354E-02 -4.999987993627E-01
O25 O 3.588859167885E-01 2.942449241045E-05 4.376742890781E-01

