data_DFT_optimized
_symmetry_space_group_name_H-M 'P 4 3 2'
_space_group_IT_number         207
_cell_length_a                 28.47404085
_cell_length_b                 28.47404085
_cell_length_c                 28.47404085
_cell_angle_alpha              90.000000
_cell_angle_beta               90.000000
_cell_angle_gamma              90.000000
loop_
_atom_site_label
_atom_site_type_symbol
_atom_site_fract_x
_atom_site_fract_y
_atom_site_fract_z
Zr1 Zr -5.000000000000E-01 8.496094904609E-02 -5.000000000000E-01
Zr2 Zr 4.415954992961E-01 0.000000000000E+00 4.415954992961E-01
C3 C -4.214606974802E-01 1.130266630061E-01 -4.216475746261E-01
C4 C -3.968324039814E-01 1.526871322389E-01 -3.973504698297E-01
C5 C -4.084655774293E-01 1.987585159585E-01 -4.094360262064E-01
C6 C -3.862503405943E-01 2.362055614550E-01 -3.875977763292E-01
C7 C -3.519278673486E-01 2.285730163528E-01 -3.532717145172E-01
C8 C -3.404216067068E-01 1.823523680512E-01 -3.412873842744E-01
C9 C -3.626516913050E-01 1.447801328949E-01 -3.631642541070E-01
C10 C -3.290207474388E-01 2.695515827029E-01 -3.302197503650E-01
C11 C -3.499786840735E-01 2.888671262557E-01 -2.898623458968E-01
C12 C -3.936602686625E-01 2.666867371807E-01 -2.700156365920E-01
H13 H -4.350558397426E-01 2.042642488988E-01 -4.361412217530E-01
H14 H -3.952089161929E-01 2.720752308218E-01 -3.970477708145E-01
H15 H -3.137282241840E-01 1.761733769101E-01 -3.147232390536E-01
H16 H -3.536752459521E-01 1.088939320328E-01 -3.539395267207E-01
H17 H -4.039667217207E-01 2.829125670643E-01 -2.368934132632E-01
H18 H -3.885853040361E-01 2.290381716337E-01 -2.641961798638E-01
H19 H -4.231035382130E-01 2.699012004185E-01 -2.945756905048E-01
H20 H 3.495948364985E-01 -2.804921347335E-02 4.213785319082E-01
H21 H 3.496764307072E-01 2.811116440849E-02 4.214167186228E-01
O22 O -4.515154738110E-01 1.246362643468E-01 -4.515856310608E-01
O23 O -4.099987751107E-01 7.138232481909E-02 -4.100753646359E-01
O24 O 4.379448656757E-01 4.274268766094E-02 -4.999972824647E-01
O25 O 3.589054904864E-01 3.921290818774E-06 4.380089275167E-01

