data_image0
_cell_length_a       16.9932
_cell_length_b       16.9932
_cell_length_c       16.9932
_cell_angle_alpha    90
_cell_angle_beta     90
_cell_angle_gamma    90

_symmetry_space_group_name_H-M    "P 1"
_symmetry_int_tables_number       1

loop_
  _symmetry_equiv_pos_as_xyz
  'x, y, z'

loop_
  _atom_site_label
  _atom_site_occupancy
  _atom_site_fract_x
  _atom_site_fract_y
  _atom_site_fract_z
  _atom_site_thermal_displace_type
  _atom_site_B_iso_or_equiv
  _atom_site_type_symbol
  C1       1.0000 0.68673  0.38927  0.15849  Biso   1.000  C 
  C2       1.0000 0.25128  0.62633  0.10716  Biso   1.000  C 
  C3       1.0000 0.21997  0.50940  0.87782  Biso   1.000  C 
  C4       1.0000 0.16631  0.23061  0.82424  Biso   1.000  C 
  C5       1.0000 0.22239  0.96543  0.92395  Biso   1.000  C 
  C6       1.0000 0.02396  0.16997  0.37078  Biso   1.000  C 
  C7       1.0000 0.88776  0.23590  0.65888  Biso   1.000  C 
  C8       1.0000 0.81833  0.80589  0.47860  Biso   1.000  C 
  C9       1.0000 0.66402  0.13284  0.98609  Biso   1.000  C 
  C10      1.0000 0.49550  0.13948  0.17495  Biso   1.000  C 
  C11      1.0000 0.52591  0.88072  0.18618  Biso   1.000  C 
  C12      1.0000 0.68352  0.88354  0.95655  Biso   1.000  C 
  C13      1.0000 0.13304  0.11498  0.12186  Biso   1.000  C 
  C14      1.0000 0.74327  0.94663  0.72217  Biso   1.000  C 
  C15      1.0000 0.57041  0.94733  0.43872  Biso   1.000  C 
  C16      1.0000 0.28033  0.99552  0.28483  Biso   1.000  C 
  C17      1.0000 0.87736  0.42266  0.38890  Biso   1.000  C 
  C18      1.0000 0.70994  0.63804  0.15788  Biso   1.000  C 
  C19      1.0000 0.49166  0.65721  0.04866  Biso   1.000  C 
  C20      1.0000 0.44322  0.38609  0.03984  Biso   1.000  C 
  C21      1.0000 0.94434  0.61505  0.20931  Biso   1.000  C 
  C22      1.0000 0.93590  0.07663  0.89054  Biso   1.000  C 
  C23      1.0000 0.04714  0.37120  0.63054  Biso   1.000  C 
  C24      1.0000 0.11150  0.84785  0.26114  Biso   1.000  C 
  C25      1.0000 0.74136  0.33501  0.05116  Biso   1.000  C 
  C26      1.0000 0.22474  0.55322  0.21280  Biso   1.000  C 
  C27      1.0000 0.28574  0.52395  0.76324  Biso   1.000  C 
  C28      1.0000 0.22999  0.23953  0.94078  Biso   1.000  C 
  C29      1.0000 0.10288  0.94181  0.97318  Biso   1.000  C 
  C30      1.0000 0.99870  0.05890  0.42944  Biso   1.000  C 
  C31      1.0000 0.82419  0.33120  0.59892  Biso   1.000  C 
  C32      1.0000 0.71705  0.73156  0.51950  Biso   1.000  C 
  C33      1.0000 0.59778  0.21439  0.90694  Biso   1.000  C 
  C34      1.0000 0.56273  0.22819  0.24259  Biso   1.000  C 
  C35      1.0000 0.64309  0.93395  0.16483  Biso   1.000  C 
  C36      1.0000 0.78074  0.82796  0.02011  Biso   1.000  C 
  C37      1.0000 0.60615  0.97324  0.22730  Biso   1.000  C 
  C38      1.0000 0.52164  0.18133  0.29641  Biso   1.000  C 
  C39      1.0000 0.63842  0.15878  0.86229  Biso   1.000  C 
  C40      1.0000 0.81140  0.89965  0.98817  Biso   1.000  C 
  C41      1.0000 0.79885  0.32605  0.67606  Biso   1.000  C 
  C42      1.0000 0.95620  0.11687  0.47048  Biso   1.000  C 
  C43      1.0000 0.14435  0.87014  0.96337  Biso   1.000  C 
  C44      1.0000 0.77133  0.68227  0.48069  Biso   1.000  C 
  C45      1.0000 0.33884  0.54371  0.82431  Biso   1.000  C 
  C46      1.0000 0.27903  0.51498  0.16732  Biso   1.000  C 
  C47      1.0000 0.78944  0.39505  0.08057  Biso   1.000  C 
  C48      1.0000 0.24505  0.31233  0.90042  Biso   1.000  C 
  C49      1.0000 0.00990  0.13118  0.08451  Biso   1.000  C 
  C50      1.0000 0.77986  0.07132  0.70488  Biso   1.000  C 
  C51      1.0000 0.53697  0.07030  0.46648  Biso   1.000  C 
  C52      1.0000 0.31993  0.03050  0.40399  Biso   1.000  C 
  C53      1.0000 0.82897  0.34364  0.29625  Biso   1.000  C 
  C54      1.0000 0.68987  0.65158  0.28307  Biso   1.000  C 
  C55      1.0000 0.42512  0.71333  0.95257  Biso   1.000  C 
  C56      1.0000 0.50003  0.47159  0.96273  Biso   1.000  C 
  C57      1.0000 0.03153  0.53345  0.14939  Biso   1.000  C 
  C58      1.0000 0.95036  0.20040  0.92489  Biso   1.000  C 
  C59      1.0000 0.17138  0.33661  0.59721  Biso   1.000  C 
  C60      1.0000 0.00885  0.90519  0.20335  Biso   1.000  C 
  C61      1.0000 0.11976  0.32127  0.53453  Biso   1.000  C 
  C62      1.0000 0.87213  0.18213  0.92526  Biso   1.000  C 
  C63      1.0000 0.95914  0.49982  0.15016  Biso   1.000  C 
  C64      1.0000 0.01377  0.82669  0.17858  Biso   1.000  C 
  C65      1.0000 0.48437  0.76577  0.97651  Biso   1.000  C 
  C66      1.0000 0.65137  0.71293  0.24251  Biso   1.000  C 
  C67      1.0000 0.86166  0.29600  0.35537  Biso   1.000  C 
  C68      1.0000 0.55112  0.40850  0.97204  Biso   1.000  C 
  C69      1.0000 0.59173  0.04578  0.51878  Biso   1.000  C 
  C70      1.0000 0.76681  0.03607  0.63146  Biso   1.000  C 
  C71      1.0000 0.01219  0.10969  0.16559  Biso   1.000  C 
  C72      1.0000 0.24222  0.05121  0.39618  Biso   1.000  C 
  C73      1.0000 0.62218  0.42161  0.20995  Biso   1.000  C 
  C74      1.0000 0.25314  0.69210  0.04876  Biso   1.000  C 
  C75      1.0000 0.15386  0.49967  0.93083  Biso   1.000  C 
  C76      1.0000 0.12253  0.19605  0.75676  Biso   1.000  C 
  C77      1.0000 0.29421  0.00704  0.88811  Biso   1.000  C 
  C78      1.0000 0.06911  0.22787  0.31493  Biso   1.000  C 
  C79      1.0000 0.94703  0.17114  0.66995  Biso   1.000  C 
  C80      1.0000 0.87603  0.86934  0.46580  Biso   1.000  C 
  C81      1.0000 0.71888  0.10773  0.05207  Biso   1.000  C 
  C82      1.0000 0.46402  0.09501  0.10783  Biso   1.000  C 
  C83      1.0000 0.45763  0.82378  0.18439  Biso   1.000  C 
  C84      1.0000 0.60385  0.91354  0.92925  Biso   1.000  C 
  C85      1.0000 0.22492  0.12163  0.12869  Biso   1.000  C 
  C86      1.0000 0.72581  0.86457  0.75579  Biso   1.000  C 
  C87      1.0000 0.57865  0.86591  0.40406  Biso   1.000  C 
  C88      1.0000 0.27346  0.94997  0.20785  Biso   1.000  C 
  C89      1.0000 0.89933  0.49050  0.43931  Biso   1.000  C 
  C90      1.0000 0.74936  0.60764  0.08156  Biso   1.000  C 
  C91      1.0000 0.52412  0.59617  0.10518  Biso   1.000  C 
  C92      1.0000 0.37856  0.35000  0.09081  Biso   1.000  C 
  C93      1.0000 0.91298  0.67773  0.26445  Biso   1.000  C 
  C94      1.0000 0.95191  0.99633  0.85776  Biso   1.000  C 
  C95      1.0000 0.97992  0.39691  0.68156  Biso   1.000  C 
  C96      1.0000 0.16426  0.82663  0.33009  Biso   1.000  C 
  H1       1.0000 0.74833  0.29340  0.00456  Biso   1.000  H 
  H2       1.0000 0.18755  0.53065  0.26018  Biso   1.000  H 
  H3       1.0000 0.29771  0.52891  0.69876  Biso   1.000  H 
  H4       1.0000 0.25121  0.20999  0.99578  Biso   1.000  H 
  H5       1.0000 0.04557  0.94862  0.99792  Biso   1.000  H 
  H6       1.0000 0.99952  0.99502  0.44155  Biso   1.000  H 
  H7       1.0000 0.79658  0.36116  0.54888  Biso   1.000  H 
  H8       1.0000 0.66703  0.72012  0.55955  Biso   1.000  H 
  H9       1.0000 0.56451  0.26829  0.89206  Biso   1.000  H 
  H10      1.0000 0.60780  0.27590  0.25601  Biso   1.000  H 
  H11      1.0000 0.69554  0.94624  0.13754  Biso   1.000  H 
  H12      1.0000 0.81076  0.79287  0.06402  Biso   1.000  H 
  H13      1.0000 0.63235  0.02161  0.26186  Biso   1.000  H 
  H14      1.0000 0.52029  0.19340  0.36114  Biso   1.000  H 
  H15      1.0000 0.62734  0.15252  0.79752  Biso   1.000  H 
  H16      1.0000 0.86676  0.93056  0.98388  Biso   1.000  H 
  H17      1.0000 0.74038  0.34838  0.69825  Biso   1.000  H 
  H18      1.0000 0.91709  0.11570  0.52272  Biso   1.000  H 
  H19      1.0000 0.12313  0.81318  0.97455  Biso   1.000  H 
  H20      1.0000 0.77508  0.61644  0.47758  Biso   1.000  H 
  H21      1.0000 0.40115  0.55511  0.83118  Biso   1.000  H 
  H22      1.0000 0.30972  0.45822  0.18383  Biso   1.000  H 
  H23      1.0000 0.84899  0.41266  0.05454  Biso   1.000  H 
  H24      1.0000 0.27552  0.36552  0.91906  Biso   1.000  H 
  H25      1.0000 0.96137  0.14391  0.04530  Biso   1.000  H 
  H26      1.0000 0.80348  0.12915  0.71965  Biso   1.000  H 
  H27      1.0000 0.51942  0.12847  0.45539  Biso   1.000  H 
  H28      1.0000 0.36364  0.03245  0.45421  Biso   1.000  H 
  H29      1.0000 0.79871  0.33220  0.24154  Biso   1.000  H 
  H30      1.0000 0.68867  0.63956  0.34814  Biso   1.000  H 
  H31      1.0000 0.37704  0.72283  0.91338  Biso   1.000  H 
  H32      1.0000 0.50734  0.52695  0.93422  Biso   1.000  H 
  H33      1.0000 0.08656  0.51491  0.12507  Biso   1.000  H 
  H34      1.0000 0.97810  0.25486  0.93761  Biso   1.000  H 
  H35      1.0000 0.23361  0.32340  0.61113  Biso   1.000  H 
  H36      1.0000 0.97564  0.95756  0.19188  Biso   1.000  H 
  H37      1.0000 0.13326  0.29107  0.47899  Biso   1.000  H 
  H38      1.0000 0.81958  0.21736  0.93220  Biso   1.000  H 
  H39      1.0000 0.93611  0.45574  0.10874  Biso   1.000  H 
  H40      1.0000 0.97874  0.79557  0.13483  Biso   1.000  H 
  H41      1.0000 0.50731  0.82184  0.95176  Biso   1.000  H 
  H42      1.0000 0.62260  0.76715  0.26923  Biso   1.000  H 
  H43      1.0000 0.86639  0.23101  0.36567  Biso   1.000  H 
  H44      1.0000 0.61026  0.39729  0.95462  Biso   1.000  H 
  H45      1.0000 0.62819  0.07337  0.56322  Biso   1.000  H 
  H46      1.0000 0.76155  0.06776  0.57733  Biso   1.000  H 
  H47      1.0000 0.95630  0.11657  0.20108  Biso   1.000  H 
  H48      1.0000 0.20382  0.07984  0.43929  Biso   1.000  H 
  H49      1.0000 0.63324  0.40095  0.27232  Biso   1.000  H 
  H50      1.0000 0.31041  0.72199  0.04468  Biso   1.000  H 
  H51      1.0000 0.17465  0.50627  0.99394  Biso   1.000  H 
  H52      1.0000 0.06901  0.23294  0.74006  Biso   1.000  H 
  H53      1.0000 0.28493  0.02487  0.82673  Biso   1.000  H 
  H54      1.0000 0.09126  0.28013  0.34680  Biso   1.000  H 
  H55      1.0000 0.00752  0.18962  0.64069  Biso   1.000  H 
  H56      1.0000 0.87628  0.91622  0.51323  Biso   1.000  H 
  H57      1.0000 0.70395  0.14151  0.10916  Biso   1.000  H 
  H58      1.0000 0.47287  0.11632  0.04625  Biso   1.000  H 
  H59      1.0000 0.47892  0.76257  0.18201  Biso   1.000  H 
  H60      1.0000 0.57461  0.87467  0.88642  Biso   1.000  H 
  H61      1.0000 0.42313  0.83538  0.23364  Biso   1.000  H 
  H62      1.0000 0.50146  0.04344  0.11428  Biso   1.000  H 
  H63      1.0000 0.71072  0.04613  0.06916  Biso   1.000  H 
  H64      1.0000 0.56360  0.92037  0.98101  Biso   1.000  H 
  H65      1.0000 0.96147  0.16481  0.73248  Biso   1.000  H 
  H66      1.0000 0.12441  0.19673  0.29331  Biso   1.000  H 
  H67      1.0000 0.30512  0.05867  0.92329  Biso   1.000  H 
  H68      1.0000 0.93188  0.83748  0.46849  Biso   1.000  H 
  H69      1.0000 0.11176  0.54999  0.92369  Biso   1.000  H 
  H70      1.0000 0.24049  0.67620  0.98386  Biso   1.000  H 
  H71      1.0000 0.63226  0.48341  0.20732  Biso   1.000  H 
  H72      1.0000 0.16042  0.18094  0.70708  Biso   1.000  H 
  H73      1.0000 0.25552  0.07818  0.08768  Biso   1.000  H 
  H74      1.0000 0.66650  0.85369  0.77353  Biso   1.000  H 
  H75      1.0000 0.63495  0.85656  0.37311  Biso   1.000  H 
  H76      1.0000 0.29390  0.88738  0.21675  Biso   1.000  H 
  H77      1.0000 0.96061  0.49406  0.46253  Biso   1.000  H 
  H78      1.0000 0.74842  0.54107  0.08215  Biso   1.000  H 
  H79      1.0000 0.52107  0.61354  0.17023  Biso   1.000  H 
  H80      1.0000 0.36493  0.28942  0.07115  Biso   1.000  H 
  H81      1.0000 0.93311  0.66659  0.32300  Biso   1.000  H 
  H82      1.0000 0.90555  0.95293  0.87859  Biso   1.000  H 
  H83      1.0000 0.96339  0.34712  0.72407  Biso   1.000  H 
  H84      1.0000 0.17929  0.87779  0.36881  Biso   1.000  H 
  H85      1.0000 0.99416  0.44845  0.71779  Biso   1.000  H 
  H86      1.0000 0.94420  0.99862  0.79445  Biso   1.000  H 
  H87      1.0000 0.92624  0.73792  0.24528  Biso   1.000  H 
  H88      1.0000 0.13106  0.78009  0.36818  Biso   1.000  H 
  H89      1.0000 0.49002  0.53899  0.09841  Biso   1.000  H 
  H90      1.0000 0.72157  0.63787  0.03081  Biso   1.000  H 
  H91      1.0000 0.88588  0.55119  0.40922  Biso   1.000  H 
  H92      1.0000 0.39646  0.34051  0.15457  Biso   1.000  H 
  H93      1.0000 0.57587  0.81843  0.45050  Biso   1.000  H 
  H94      1.0000 0.73382  0.83071  0.70023  Biso   1.000  H 
  H95      1.0000 0.24147  0.18614  0.11436  Biso   1.000  H 
  H96      1.0000 0.21561  0.95900  0.17959  Biso   1.000  H 
  H97      1.0000 0.56389  0.39971  0.19263  Biso   1.000  H 
  H98      1.0000 0.20491  0.73627  0.06042  Biso   1.000  H 
  H99      1.0000 0.12276  0.44444  0.91490  Biso   1.000  H 
  H100     1.0000 0.09412  0.13453  0.77093  Biso   1.000  H 
  H101     1.0000 0.34521  0.96643  0.89445  Biso   1.000  H 
  H102     1.0000 0.03397  0.25257  0.26652  Biso   1.000  H 
  H103     1.0000 0.93189  0.11147  0.64955  Biso   1.000  H 
  H104     1.0000 0.86729  0.89975  0.40749  Biso   1.000  H 
  H105     1.0000 0.77886  0.12315  0.03334  Biso   1.000  H 
  H106     1.0000 0.40438  0.07812  0.11895  Biso   1.000  H 
  H107     1.0000 0.42135  0.83492  0.12887  Biso   1.000  H 
  H108     1.0000 0.61298  0.97053  0.90128  Biso   1.000  H 
  H109     1.0000 0.23503  0.10965  0.19150  Biso   1.000  H 
  H110     1.0000 0.76193  0.84026  0.80270  Biso   1.000  H 
  H111     1.0000 0.53285  0.85413  0.36102  Biso   1.000  H 
  H112     1.0000 0.31453  0.97557  0.16510  Biso   1.000  H 
  H113     1.0000 0.86185  0.49136  0.48997  Biso   1.000  H 
  H114     1.0000 0.81253  0.62586  0.08287  Biso   1.000  H 
  H115     1.0000 0.58648  0.58630  0.09270  Biso   1.000  H 
  H116     1.0000 0.32909  0.38803  0.09629  Biso   1.000  H 
  H117     1.0000 0.84898  0.66695  0.26607  Biso   1.000  H 
  H118     1.0000 0.00883  0.96508  0.86984  Biso   1.000  H 
  H119     1.0000 0.92913  0.40908  0.64706  Biso   1.000  H 
  H120     1.0000 0.22388  0.80430  0.32173  Biso   1.000  H 
  N1       1.0000 0.67803  0.33367  0.10409  Biso   1.000  N 
  N2       1.0000 0.19726  0.61940  0.16928  Biso   1.000  N 
  N3       1.0000 0.21141  0.50069  0.79560  Biso   1.000  N 
  N4       1.0000 0.18418  0.19312  0.89115  Biso   1.000  N 
  N5       1.0000 0.15155  0.00333  0.94957  Biso   1.000  N 
  N6       1.0000 0.03943  0.09194  0.37023  Biso   1.000  N 
  N7       1.0000 0.88101  0.27608  0.58749  Biso   1.000  N 
  N8       1.0000 0.75103  0.80808  0.51801  Biso   1.000  N 
  N9       1.0000 0.62573  0.20233  0.98537  Biso   1.000  N 
  N10      1.0000 0.54492  0.20164  0.16642  Biso   1.000  N 
  N11      1.0000 0.59068  0.87429  0.14059  Biso   1.000  N 
  N12      1.0000 0.70182  0.82126  0.00372  Biso   1.000  N 
  N13      1.0000 0.53073  0.94434  0.23783  Biso   1.000  N 
  N14      1.0000 0.47820  0.12168  0.25289  Biso   1.000  N 
  N15      1.0000 0.67411  0.10378  0.91384  Biso   1.000  N 
  N16      1.0000 0.74708  0.92968  0.94484  Biso   1.000  N 
  N17      1.0000 0.83611  0.26486  0.71324  Biso   1.000  N 
  N18      1.0000 0.97246  0.18858  0.43083  Biso   1.000  N 
  N19      1.0000 0.21819  0.88602  0.92972  Biso   1.000  N 
  N20      1.0000 0.83710  0.73105  0.45694  Biso   1.000  N 
  N21      1.0000 0.29923  0.53374  0.89650  Biso   1.000  N 
  N22      1.0000 0.29683  0.56072  0.10553  Biso   1.000  N 
  N23      1.0000 0.75650  0.42996  0.14554  Biso   1.000  N 
  N24      1.0000 0.20119  0.30689  0.82675  Biso   1.000  N 
  N25      1.0000 0.08640  0.13466  0.05868  Biso   1.000  N 
  N26      1.0000 0.77125  0.00843  0.76298  Biso   1.000  N 
  N27      1.0000 0.52479  0.01089  0.40952  Biso   1.000  N 
  N28      1.0000 0.34091  0.99560  0.33306  Biso   1.000  N 
  N29      1.0000 0.83372  0.42282  0.32071  Biso   1.000  N 
  N30      1.0000 0.72908  0.60228  0.22787  Biso   1.000  N 
  N31      1.0000 0.42542  0.64624  0.00229  Biso   1.000  N 
  N32      1.0000 0.43158  0.45876  0.00463  Biso   1.000  N 
  N33      1.0000 0.02384  0.60658  0.18906  Biso   1.000  N 
  N34      1.0000 0.99619  0.13509  0.90146  Biso   1.000  N 
  N35      1.0000 0.12442  0.36829  0.65869  Biso   1.000  N 
  N36      1.0000 0.07238  0.92190  0.25301  Biso   1.000  N 
  N37      1.0000 0.04504  0.34287  0.55438  Biso   1.000  N 
  N38      1.0000 0.86244  0.10283  0.90377  Biso   1.000  N 
  N39      1.0000 0.90088  0.54964  0.18450  Biso   1.000  N 
  N40      1.0000 0.07714  0.79251  0.21570  Biso   1.000  N 
  N41      1.0000 0.52699  0.72830  0.03326  Biso   1.000  N 
  N42      1.0000 0.66881  0.70453  0.16561  Biso   1.000  N 
  N43      1.0000 0.89442  0.34747  0.41046  Biso   1.000  N 
  N44      1.0000 0.51682  0.35783  0.02560  Biso   1.000  N 
  N45      1.0000 0.61215  0.96673  0.50416  Biso   1.000  N 
  N46      1.0000 0.74020  0.95972  0.64245  Biso   1.000  N 
  N47      1.0000 0.09030  0.09836  0.18881  Biso   1.000  N 
  N48      1.0000 0.21582  0.02836  0.32349  Biso   1.000  N 
  Zn1      1.0000 0.10759  0.68491  0.19172  Biso   1.000  Zn
  Zn2      1.0000 0.17314  0.39354  0.75711  Biso   1.000  Zn
  Zn3      1.0000 0.10316  0.03427  0.29291  Biso   1.000  Zn
  Zn4      1.0000 0.69416  0.90341  0.55507  Biso   1.000  Zn
  Zn5      1.0000 0.58410  0.26451  0.06972  Biso   1.000  Zn
  Zn6      1.0000 0.62726  0.77726  0.07944  Biso   1.000  Zn
  Zn7      1.0000 0.45717  0.01451  0.30828  Biso   1.000  Zn
  Zn8      1.0000 0.76056  0.03539  0.88114  Biso   1.000  Zn
  Zn9      1.0000 0.94711  0.30038  0.49757  Biso   1.000  Zn
  Zn10     1.0000 0.10912  0.11000  0.94039  Biso   1.000  Zn
  Zn11     1.0000 0.35608  0.54578  0.00091  Biso   1.000  Zn
  Zn12     1.0000 0.80967  0.50563  0.22671  Biso   1.000  Zn
