data_image0
_cell_length_a       16.9932
_cell_length_b       16.9932
_cell_length_c       16.9932
_cell_angle_alpha    90
_cell_angle_beta     90
_cell_angle_gamma    90

_symmetry_space_group_name_H-M    "P 1"
_symmetry_int_tables_number       1

loop_
  _symmetry_equiv_pos_as_xyz
  'x, y, z'

loop_
  _atom_site_label
  _atom_site_occupancy
  _atom_site_fract_x
  _atom_site_fract_y
  _atom_site_fract_z
  _atom_site_thermal_displace_type
  _atom_site_B_iso_or_equiv
  _atom_site_type_symbol
  C1       1.0000 0.89867  0.52405  0.20858  Biso   1.000  C 
  C2       1.0000 0.16571  0.51369  0.18319  Biso   1.000  C 
  C3       1.0000 0.14658  0.52847  0.90980  Biso   1.000  C 
  C4       1.0000 0.88149  0.52288  0.92660  Biso   1.000  C 
  C5       1.0000 0.16992  0.96617  0.56404  Biso   1.000  C 
  C6       1.0000 0.20969  0.21712  0.54368  Biso   1.000  C 
  C7       1.0000 0.94365  0.15961  0.55364  Biso   1.000  C 
  C8       1.0000 0.91504  0.90755  0.48006  Biso   1.000  C 
  C9       1.0000 0.53796  0.17469  0.91551  Biso   1.000  C 
  C10      1.0000 0.55575  0.14457  0.15017  Biso   1.000  C 
  C11      1.0000 0.53669  0.90904  0.17624  Biso   1.000  C 
  C12      1.0000 0.56950  0.91686  0.91963  Biso   1.000  C 
  C13      1.0000 0.45819  0.05914  0.67220  Biso   1.000  C 
  C14      1.0000 0.70322  0.06798  0.67057  Biso   1.000  C 
  C15      1.0000 0.67152  0.02990  0.41796  Biso   1.000  C 
  C16      1.0000 0.42039  0.08328  0.40952  Biso   1.000  C 
  C17      1.0000 0.65688  0.42538  0.04916  Biso   1.000  C 
  C18      1.0000 0.64466  0.64814  0.06704  Biso   1.000  C 
  C19      1.0000 0.40593  0.66125  0.01348  Biso   1.000  C 
  C20      1.0000 0.40070  0.41161  0.05334  Biso   1.000  C 
  C21      1.0000 0.03628  0.70044  0.41244  Biso   1.000  C 
  C22      1.0000 0.02344  0.69342  0.69281  Biso   1.000  C 
  C23      1.0000 0.03836  0.40229  0.70687  Biso   1.000  C 
  C24      1.0000 0.03939  0.43051  0.43733  Biso   1.000  C 
  C25      1.0000 0.88119  0.63201  0.28033  Biso   1.000  C 
  C26      1.0000 0.08749  0.61902  0.16159  Biso   1.000  C 
  C27      1.0000 0.16386  0.62736  0.82671  Biso   1.000  C 
  C28      1.0000 0.91742  0.61829  0.01083  Biso   1.000  C 
  C29      1.0000 0.27420  0.90481  0.61177  Biso   1.000  C 
  C30      1.0000 0.22886  0.15737  0.65546  Biso   1.000  C 
  C31      1.0000 0.92807  0.13928  0.42915  Biso   1.000  C 
  C32      1.0000 0.82429  0.87151  0.56578  Biso   1.000  C 
  C33      1.0000 0.64098  0.25064  0.89891  Biso   1.000  C 
  C34      1.0000 0.43648  0.19797  0.15649  Biso   1.000  C 
  C35      1.0000 0.63895  0.83659  0.17518  Biso   1.000  C 
  C36      1.0000 0.46837  0.84685  0.88349  Biso   1.000  C 
  C37      1.0000 0.64124  0.87657  0.24537  Biso   1.000  C 
  C38      1.0000 0.44192  0.14175  0.21560  Biso   1.000  C 
  C39      1.0000 0.63617  0.19788  0.83666  Biso   1.000  C 
  C40      1.0000 0.49102  0.89457  0.82351  Biso   1.000  C 
  C41      1.0000 0.98792  0.19393  0.43614  Biso   1.000  C 
  C42      1.0000 0.16597  0.20839  0.66420  Biso   1.000  C 
  C43      1.0000 0.21474  0.85027  0.59833  Biso   1.000  C 
  C44      1.0000 0.88953  0.82240  0.57469  Biso   1.000  C 
  C45      1.0000 0.22920  0.61961  0.87659  Biso   1.000  C 
  C46      1.0000 0.14211  0.61566  0.10197  Biso   1.000  C 
  C47      1.0000 0.82475  0.62748  0.22035  Biso   1.000  C 
  C48      1.0000 0.95830  0.62557  0.94069  Biso   1.000  C 
  C49      1.0000 0.52815  0.96059  0.63393  Biso   1.000  C 
  C50      1.0000 0.75551  0.98867  0.76077  Biso   1.000  C 
  C51      1.0000 0.66679  0.14748  0.36136  Biso   1.000  C 
  C52      1.0000 0.39432  0.96811  0.34665  Biso   1.000  C 
  C53      1.0000 0.70940  0.39911  0.16506  Biso   1.000  C 
  C54      1.0000 0.73464  0.66821  0.97110  Biso   1.000  C 
  C55      1.0000 0.33542  0.67986  0.12082  Biso   1.000  C 
  C56      1.0000 0.31404  0.38424  0.96128  Biso   1.000  C 
  C57      1.0000 0.15413  0.76086  0.39648  Biso   1.000  C 
  C58      1.0000 0.08629  0.64412  0.58724  Biso   1.000  C 
  C59      1.0000 0.92356  0.37128  0.65534  Biso   1.000  C 
  C60      1.0000 0.15278  0.43178  0.49696  Biso   1.000  C 
  C61      1.0000 0.91406  0.42956  0.71128  Biso   1.000  C 
  C62      1.0000 0.05178  0.58486  0.62993  Biso   1.000  C 
  C63      1.0000 0.14755  0.69840  0.34471  Biso   1.000  C 
  C64      1.0000 0.15076  0.48979  0.43813  Biso   1.000  C 
  C65      1.0000 0.39325  0.73258  0.12348  Biso   1.000  C 
  C66      1.0000 0.66841  0.71432  0.95671  Biso   1.000  C 
  C67      1.0000 0.63783  0.35903  0.15940  Biso   1.000  C 
  C68      1.0000 0.37068  0.32657  0.95559  Biso   1.000  C 
  C69      1.0000 0.72742  0.14548  0.41845  Biso   1.000  C 
  C70      1.0000 0.80687  0.99434  0.69953  Biso   1.000  C 
  C71      1.0000 0.46752  0.97076  0.57953  Biso   1.000  C 
  C72      1.0000 0.33067  0.98822  0.39507  Biso   1.000  C 
  C73      1.0000 0.93701  0.45174  0.17693  Biso   1.000  C 
  C74      1.0000 0.20457  0.43954  0.21164  Biso   1.000  C 
  C75      1.0000 0.11004  0.45694  0.94500  Biso   1.000  C 
  C76      1.0000 0.83434  0.45384  0.89486  Biso   1.000  C 
  C77      1.0000 0.12242  0.03356  0.52759  Biso   1.000  C 
  C78      1.0000 0.21587  0.23286  0.45566  Biso   1.000  C 
  C79      1.0000 0.94172  0.16058  0.64374  Biso   1.000  C 
  C80      1.0000 0.94861  0.94768  0.40734  Biso   1.000  C 
  C81      1.0000 0.46942  0.13265  0.95543  Biso   1.000  C 
  C82      1.0000 0.63453  0.13519  0.11653  Biso   1.000  C 
  C83      1.0000 0.45454  0.93813  0.15372  Biso   1.000  C 
  C84      1.0000 0.64213  0.95022  0.96489  Biso   1.000  C 
  C85      1.0000 0.42779  0.13056  0.71011  Biso   1.000  C 
  C86      1.0000 0.65029  0.12866  0.62289  Biso   1.000  C 
  C87      1.0000 0.65289  0.94464  0.43107  Biso   1.000  C 
  C88      1.0000 0.46547  0.15230  0.44210  Biso   1.000  C 
  C89      1.0000 0.63940  0.46881  0.97303  Biso   1.000  C 
  C90      1.0000 0.60331  0.62018  0.14049  Biso   1.000  C 
  C91      1.0000 0.42770  0.62831  0.93211  Biso   1.000  C 
  C92      1.0000 0.43443  0.44913  0.12647  Biso   1.000  C 
  C93      1.0000 0.95751  0.68258  0.44443  Biso   1.000  C 
  C94      1.0000 0.99110  0.74860  0.75168  Biso   1.000  C 
  C95      1.0000 0.12836  0.40932  0.71189  Biso   1.000  C 
  C96      1.0000 0.96043  0.40504  0.41216  Biso   1.000  C 
  H1       1.0000 0.89431  0.68165  0.31911  Biso   1.000  H 
  H2       1.0000 0.04688  0.66767  0.17457  Biso   1.000  H 
  H3       1.0000 0.15236  0.66971  0.77641  Biso   1.000  H 
  H4       1.0000 0.91877  0.64384  0.07020  Biso   1.000  H 
  H5       1.0000 0.33398  0.89752  0.63688  Biso   1.000  H 
  H6       1.0000 0.24889  0.10767  0.69096  Biso   1.000  H 
  H7       1.0000 0.89897  0.12153  0.37450  Biso   1.000  H 
  H8       1.0000 0.77057  0.87595  0.60471  Biso   1.000  H 
  H9       1.0000 0.68283  0.29439  0.91494  Biso   1.000  H 
  H10      1.0000 0.39772  0.24661  0.14347  Biso   1.000  H 
  H11      1.0000 0.68036  0.79719  0.15354  Biso   1.000  H 
  H12      1.0000 0.41717  0.80398  0.88569  Biso   1.000  H 
  H13      1.0000 0.69233  0.87761  0.28069  Biso   1.000  H 
  H14      1.0000 0.39819  0.12527  0.26128  Biso   1.000  H 
  H15      1.0000 0.67057  0.19225  0.78160  Biso   1.000  H 
  H16      1.0000 0.45515  0.90256  0.77242  Biso   1.000  H 
  H17      1.0000 0.03437  0.21334  0.39488  Biso   1.000  H 
  H18      1.0000 0.12583  0.21854  0.71316  Biso   1.000  H 
  H19      1.0000 0.21267  0.78542  0.61143  Biso   1.000  H 
  H20      1.0000 0.89501  0.76129  0.60520  Biso   1.000  H 
  H21      1.0000 0.27928  0.65945  0.88225  Biso   1.000  H 
  H22      1.0000 0.15820  0.65978  0.06044  Biso   1.000  H 
  H23      1.0000 0.77526  0.66791  0.20468  Biso   1.000  H 
  H24      1.0000 0.99693  0.67560  0.92300  Biso   1.000  H 
  H25      1.0000 0.57198  0.91288  0.63539  Biso   1.000  H 
  H26      1.0000 0.75462  0.95548  0.81525  Biso   1.000  H 
  H27      1.0000 0.65145  0.18443  0.31102  Biso   1.000  H 
  H28      1.0000 0.40961  0.91487  0.31356  Biso   1.000  H 
  H29      1.0000 0.76189  0.40658  0.20502  Biso   1.000  H 
  H30      1.0000 0.78677  0.66993  0.93212  Biso   1.000  H 
  H31      1.0000 0.29375  0.66054  0.16683  Biso   1.000  H 
  H32      1.0000 0.26889  0.39509  0.91625  Biso   1.000  H 
  H33      1.0000 0.20845  0.79305  0.40824  Biso   1.000  H 
  H34      1.0000 0.11257  0.64171  0.52768  Biso   1.000  H 
  H35      1.0000 0.88194  0.33297  0.62630  Biso   1.000  H 
  H36      1.0000 0.19464  0.40859  0.53776  Biso   1.000  H 
  H37      1.0000 0.85745  0.45481  0.72632  Biso   1.000  H 
  H38      1.0000 0.06152  0.52176  0.62381  Biso   1.000  H 
  H39      1.0000 0.18541  0.67527  0.29906  Biso   1.000  H 
  H40      1.0000 0.19460  0.53180  0.42872  Biso   1.000  H 
  H41      1.0000 0.39835  0.78688  0.16064  Biso   1.000  H 
  H42      1.0000 0.66092  0.75611  0.90416  Biso   1.000  H 
  H43      1.0000 0.60550  0.31928  0.19532  Biso   1.000  H 
  H44      1.0000 0.37529  0.28047  0.91068  Biso   1.000  H 
  H45      1.0000 0.76924  0.19289  0.44213  Biso   1.000  H 
  H46      1.0000 0.86916  0.97085  0.69370  Biso   1.000  H 
  H47      1.0000 0.45733  0.93760  0.52590  Biso   1.000  H 
  H48      1.0000 0.27197  0.96042  0.39530  Biso   1.000  H 
  H49      1.0000 0.00279  0.44872  0.18881  Biso   1.000  H 
  H50      1.0000 0.17536  0.40702  0.26424  Biso   1.000  H 
  H51      1.0000 0.14700  0.43705  0.99649  Biso   1.000  H 
  H52      1.0000 0.79703  0.42744  0.93952  Biso   1.000  H 
  H53      1.0000 0.05648  0.01772  0.52194  Biso   1.000  H 
  H54      1.0000 0.21091  0.18136  0.41333  Biso   1.000  H 
  H55      1.0000 0.96753  0.21673  0.67580  Biso   1.000  H 
  H56      1.0000 0.90396  0.96347  0.36466  Biso   1.000  H 
  H57      1.0000 0.44103  0.08160  0.92135  Biso   1.000  H 
  H58      1.0000 0.68043  0.11016  0.16041  Biso   1.000  H 
  H59      1.0000 0.41211  0.89568  0.17309  Biso   1.000  H 
  H60      1.0000 0.68614  0.89908  0.96128  Biso   1.000  H 
  H61      1.0000 0.44656  0.99835  0.17332  Biso   1.000  H 
  H62      1.0000 0.62972  0.09761  0.06308  Biso   1.000  H 
  H63      1.0000 0.48486  0.10545  0.01281  Biso   1.000  H 
  H64      1.0000 0.67234  0.99461  0.93199  Biso   1.000  H 
  H65      1.0000 0.88667  0.14520  0.67503  Biso   1.000  H 
  H66      1.0000 0.17715  0.28281  0.43404  Biso   1.000  H 
  H67      1.0000 0.12131  0.08850  0.55844  Biso   1.000  H 
  H68      1.0000 0.98527  0.00035  0.42671  Biso   1.000  H 
  H69      1.0000 0.05421  0.47842  0.96928  Biso   1.000  H 
  H70      1.0000 0.21098  0.40270  0.15682  Biso   1.000  H 
  H71      1.0000 0.91405  0.39955  0.20561  Biso   1.000  H 
  H72      1.0000 0.79870  0.47249  0.84729  Biso   1.000  H 
  H73      1.0000 0.47712  0.16549  0.73466  Biso   1.000  H 
  H74      1.0000 0.65309  0.10858  0.55830  Biso   1.000  H 
  H75      1.0000 0.62547  0.92296  0.37615  Biso   1.000  H 
  H76      1.0000 0.51050  0.12660  0.48130  Biso   1.000  H 
  H77      1.0000 0.61887  0.43114  0.92247  Biso   1.000  H 
  H78      1.0000 0.60188  0.55410  0.13930  Biso   1.000  H 
  H79      1.0000 0.48936  0.61189  0.92386  Biso   1.000  H 
  H80      1.0000 0.47245  0.49382  0.10447  Biso   1.000  H 
  H81      1.0000 0.95449  0.67583  0.50999  Biso   1.000  H 
  H82      1.0000 0.03706  0.78689  0.77519  Biso   1.000  H 
  H83      1.0000 0.14986  0.35744  0.74601  Biso   1.000  H 
  H84      1.0000 0.94476  0.34810  0.44027  Biso   1.000  H 
  H85      1.0000 0.15669  0.40984  0.65520  Biso   1.000  H 
  H86      1.0000 0.94602  0.79431  0.72040  Biso   1.000  H 
  H87      1.0000 0.91859  0.72789  0.42713  Biso   1.000  H 
  H88      1.0000 0.91497  0.45207  0.41669  Biso   1.000  H 
  H89      1.0000 0.39021  0.57210  0.92408  Biso   1.000  H 
  H90      1.0000 0.63779  0.65139  0.18595  Biso   1.000  H 
  H91      1.0000 0.59049  0.51070  0.98183  Biso   1.000  H 
  H92      1.0000 0.38849  0.48899  0.15517  Biso   1.000  H 
  H93      1.0000 0.70848  0.91279  0.44022  Biso   1.000  H 
  H94      1.0000 0.58988  0.13347  0.64927  Biso   1.000  H 
  H95      1.0000 0.39288  0.16634  0.67343  Biso   1.000  H 
  H96      1.0000 0.49189  0.18942  0.39861  Biso   1.000  H 
  H97      1.0000 0.93376  0.44661  0.11005  Biso   1.000  H 
  H98      1.0000 0.26545  0.45252  0.22545  Biso   1.000  H 
  H99      1.0000 0.10455  0.40544  0.90532  Biso   1.000  H 
  H100     1.0000 0.87421  0.40794  0.87244  Biso   1.000  H 
  H101     1.0000 0.14342  0.04618  0.46510  Biso   1.000  H 
  H102     1.0000 0.27786  0.26125  0.44782  Biso   1.000  H 
  H103     1.0000 0.98242  0.11118  0.66715  Biso   1.000  H 
  H104     1.0000 0.99150  0.91461  0.36950  Biso   1.000  H 
  H105     1.0000 0.42308  0.17645  0.97485  Biso   1.000  H 
  H106     1.0000 0.65766  0.19067  0.09070  Biso   1.000  H 
  H107     1.0000 0.45195  0.93677  0.08674  Biso   1.000  H 
  H108     1.0000 0.62410  0.97462  0.02399  Biso   1.000  H 
  H109     1.0000 0.38877  0.11613  0.76375  Biso   1.000  H 
  H110     1.0000 0.67836  0.18846  0.62288  Biso   1.000  H 
  H111     1.0000 0.61130  0.92786  0.48142  Biso   1.000  H 
  H112     1.0000 0.42885  0.18948  0.48134  Biso   1.000  H 
  H113     1.0000 0.69446  0.49232  0.95390  Biso   1.000  H 
  H114     1.0000 0.54167  0.64655  0.14148  Biso   1.000  H 
  H115     1.0000 0.41179  0.67245  0.88758  Biso   1.000  H 
  H116     1.0000 0.47178  0.40973  0.16487  Biso   1.000  H 
  H117     1.0000 0.93230  0.62822  0.41783  Biso   1.000  H 
  H118     1.0000 0.96388  0.71741  0.80211  Biso   1.000  H 
  H119     1.0000 0.13285  0.46084  0.74795  Biso   1.000  H 
  H120     1.0000 0.95513  0.39505  0.34775  Biso   1.000  H 
  N1       1.0000 0.92998  0.56511  0.27174  Biso   1.000  N 
  N2       1.0000 0.10349  0.55428  0.21034  Biso   1.000  N 
  N3       1.0000 0.11120  0.56923  0.84782  Biso   1.000  N 
  N4       1.0000 0.87061  0.54716  0.00277  Biso   1.000  N 
  N5       1.0000 0.24581  0.97831  0.59056  Biso   1.000  N 
  N6       1.0000 0.25624  0.16148  0.57865  Biso   1.000  N 
  N7       1.0000 0.89962  0.11736  0.50433  Biso   1.000  N 
  N8       1.0000 0.84129  0.92838  0.50748  Biso   1.000  N 
  N9       1.0000 0.57440  0.23779  0.94817  Biso   1.000  N 
  N10      1.0000 0.50780  0.20482  0.11966  Biso   1.000  N 
  N11      1.0000 0.57152  0.84909  0.13401  Biso   1.000  N 
  N12      1.0000 0.52109  0.86067  0.94541  Biso   1.000  N 
  N13      1.0000 0.57382  0.92386  0.24639  Biso   1.000  N 
  N14      1.0000 0.51447  0.10724  0.20782  Biso   1.000  N 
  N15      1.0000 0.57194  0.15152  0.84543  Biso   1.000  N 
  N16      1.0000 0.55367  0.93838  0.84582  Biso   1.000  N 
  N17      1.0000 0.00141  0.20350  0.51497  Biso   1.000  N 
  N18      1.0000 0.15511  0.24573  0.59315  Biso   1.000  N 
  N19      1.0000 0.14623  0.88821  0.57429  Biso   1.000  N 
  N20      1.0000 0.94539  0.84613  0.51844  Biso   1.000  N 
  N21      1.0000 0.21881  0.55643  0.92859  Biso   1.000  N 
  N22      1.0000 0.19260  0.55223  0.11943  Biso   1.000  N 
  N23      1.0000 0.84093  0.56062  0.17533  Biso   1.000  N 
  N24      1.0000 0.93409  0.57018  0.88800  Biso   1.000  N 
  N25      1.0000 0.52096  0.01668  0.69362  Biso   1.000  N 
  N26      1.0000 0.69107  0.03683  0.74248  Biso   1.000  N 
  N27      1.0000 0.63542  0.06956  0.36076  Biso   1.000  N 
  N28      1.0000 0.45541  0.02642  0.36301  Biso   1.000  N 
  N29      1.0000 0.71705  0.44228  0.09692  Biso   1.000  N 
  N30      1.0000 0.71456  0.62440  0.04238  Biso   1.000  N 
  N31      1.0000 0.33927  0.63509  0.05194  Biso   1.000  N 
  N32      1.0000 0.33421  0.43890  0.01967  Biso   1.000  N 
  N33      1.0000 0.08482  0.76390  0.44099  Biso   1.000  N 
  N34      1.0000 0.05800  0.71750  0.62262  Biso   1.000  N 
  N35      1.0000 0.00427  0.35256  0.65673  Biso   1.000  N 
  N36      1.0000 0.08070  0.39244  0.49505  Biso   1.000  N 
  N37      1.0000 0.98338  0.45003  0.74411  Biso   1.000  N 
  N38      1.0000 0.01687  0.61529  0.69626  Biso   1.000  N 
  N39      1.0000 0.07270  0.66140  0.35370  Biso   1.000  N 
  N40      1.0000 0.07984  0.48537  0.39887  Biso   1.000  N 
  N41      1.0000 0.43784  0.72251  0.05350  Biso   1.000  N 
  N42      1.0000 0.61539  0.70357  0.01902  Biso   1.000  N 
  N43      1.0000 0.60543  0.37464  0.08564  Biso   1.000  N 
  N44      1.0000 0.42556  0.34156  0.01516  Biso   1.000  N 
  N45      1.0000 0.73171  0.07144  0.45067  Biso   1.000  N 
  N46      1.0000 0.77577  0.04407  0.64455  Biso   1.000  N 
  N47      1.0000 0.42280  0.03668  0.60327  Biso   1.000  N 
  N48      1.0000 0.34642  0.06144  0.42977  Biso   1.000  N 
  Zn1      1.0000 0.04443  0.55280  0.30766  Biso   1.000  Zn
  Zn2      1.0000 0.00707  0.55198  0.79520  Biso   1.000  Zn
  Zn3      1.0000 0.31828  0.06318  0.54531  Biso   1.000  Zn
  Zn4      1.0000 0.81634  0.04183  0.53121  Biso   1.000  Zn
  Zn5      1.0000 0.52713  0.29564  0.04645  Biso   1.000  Zn
  Zn6      1.0000 0.53573  0.78894  0.04114  Biso   1.000  Zn
  Zn7      1.0000 0.54900  0.02903  0.29564  Biso   1.000  Zn
  Zn8      1.0000 0.58480  0.04151  0.79244  Biso   1.000  Zn
  Zn9      1.0000 0.05205  0.29930  0.56299  Biso   1.000  Zn
  Zn10     1.0000 0.05967  0.80980  0.54196  Biso   1.000  Zn
  Zn11     1.0000 0.27357  0.53900  0.03197  Biso   1.000  Zn
  Zn12     1.0000 0.78262  0.53494  0.07419  Biso   1.000  Zn
