data_image0
_cell_length_a       16.9932
_cell_length_b       16.9932
_cell_length_c       16.9932
_cell_angle_alpha    90
_cell_angle_beta     90
_cell_angle_gamma    90

_symmetry_space_group_name_H-M    "P 1"
_symmetry_int_tables_number       1

loop_
  _symmetry_equiv_pos_as_xyz
  'x, y, z'

loop_
  _atom_site_label
  _atom_site_occupancy
  _atom_site_fract_x
  _atom_site_fract_y
  _atom_site_fract_z
  _atom_site_thermal_displace_type
  _atom_site_B_iso_or_equiv
  _atom_site_type_symbol
  C1       1.0000 0.87613  0.53660  0.19022  Biso   1.000  C 
  C2       1.0000 0.17538  0.57448  0.16207  Biso   1.000  C 
  C3       1.0000 0.17411  0.56348  0.90658  Biso   1.000  C 
  C4       1.0000 0.92245  0.55874  0.90713  Biso   1.000  C 
  C5       1.0000 0.16041  0.93447  0.56454  Biso   1.000  C 
  C6       1.0000 0.17880  0.16834  0.55083  Biso   1.000  C 
  C7       1.0000 0.93629  0.15998  0.55274  Biso   1.000  C 
  C8       1.0000 0.91297  0.91033  0.51688  Biso   1.000  C 
  C9       1.0000 0.54915  0.16090  0.93830  Biso   1.000  C 
  C10      1.0000 0.54166  0.16721  0.17134  Biso   1.000  C 
  C11      1.0000 0.56397  0.90894  0.19540  Biso   1.000  C 
  C12      1.0000 0.54919  0.92447  0.94458  Biso   1.000  C 
  C13      1.0000 0.42297  0.04004  0.69460  Biso   1.000  C 
  C14      1.0000 0.67367  0.02569  0.67792  Biso   1.000  C 
  C15      1.0000 0.68056  0.01902  0.42234  Biso   1.000  C 
  C16      1.0000 0.41139  0.06559  0.43245  Biso   1.000  C 
  C17      1.0000 0.69462  0.41177  0.04049  Biso   1.000  C 
  C18      1.0000 0.65653  0.65853  0.08417  Biso   1.000  C 
  C19      1.0000 0.40000  0.69086  0.05818  Biso   1.000  C 
  C20      1.0000 0.43752  0.42853  0.03176  Biso   1.000  C 
  C21      1.0000 0.02178  0.68225  0.39564  Biso   1.000  C 
  C22      1.0000 0.04386  0.67882  0.65903  Biso   1.000  C 
  C23      1.0000 0.06041  0.43823  0.65421  Biso   1.000  C 
  C24      1.0000 0.02601  0.42470  0.41499  Biso   1.000  C 
  C25      1.0000 0.95022  0.64433  0.17128  Biso   1.000  C 
  C26      1.0000 0.09551  0.47551  0.13478  Biso   1.000  C 
  C27      1.0000 0.17944  0.45888  0.83102  Biso   1.000  C 
  C28      1.0000 0.89211  0.65208  0.82374  Biso   1.000  C 
  C29      1.0000 0.23696  0.93291  0.45580  Biso   1.000  C 
  C30      1.0000 0.24822  0.19276  0.65579  Biso   1.000  C 
  C31      1.0000 0.84816  0.19530  0.45893  Biso   1.000  C 
  C32      1.0000 0.85762  0.90609  0.63498  Biso   1.000  C 
  C33      1.0000 0.43925  0.23082  0.92938  Biso   1.000  C 
  C34      1.0000 0.65406  0.22828  0.18168  Biso   1.000  C 
  C35      1.0000 0.44321  0.86535  0.18526  Biso   1.000  C 
  C36      1.0000 0.63975  0.83052  0.91915  Biso   1.000  C 
  C37      1.0000 0.43925  0.93112  0.23608  Biso   1.000  C 
  C38      1.0000 0.65025  0.17468  0.24149  Biso   1.000  C 
  C39      1.0000 0.44729  0.17596  0.86391  Biso   1.000  C 
  C40      1.0000 0.64416  0.88865  0.86231  Biso   1.000  C 
  C41      1.0000 0.91013  0.24627  0.45432  Biso   1.000  C 
  C42      1.0000 0.18990  0.25129  0.65480  Biso   1.000  C 
  C43      1.0000 0.17153  0.88330  0.44332  Biso   1.000  C 
  C44      1.0000 0.91186  0.84277  0.63136  Biso   1.000  C 
  C45      1.0000 0.24228  0.45744  0.88592  Biso   1.000  C 
  C46      1.0000 0.15556  0.47290  0.08309  Biso   1.000  C 
  C47      1.0000 0.90243  0.63340  0.10612  Biso   1.000  C 
  C48      1.0000 0.83443  0.64743  0.87915  Biso   1.000  C 
  C49      1.0000 0.40643  0.93716  0.77423  Biso   1.000  C 
  C50      1.0000 0.69286  0.13275  0.75233  Biso   1.000  C 
  C51      1.0000 0.62020  0.13727  0.41777  Biso   1.000  C 
  C52      1.0000 0.45727  0.94544  0.41544  Biso   1.000  C 
  C53      1.0000 0.76140  0.39943  0.93128  Biso   1.000  C 
  C54      1.0000 0.64734  0.59707  0.97028  Biso   1.000  C 
  C55      1.0000 0.33697  0.69825  0.94644  Biso   1.000  C 
  C56      1.0000 0.35798  0.42490  0.13431  Biso   1.000  C 
  C57      1.0000 0.13513  0.66190  0.46053  Biso   1.000  C 
  C58      1.0000 0.14301  0.76182  0.68212  Biso   1.000  C 
  C59      1.0000 0.96219  0.35838  0.67893  Biso   1.000  C 
  C60      1.0000 0.12541  0.34917  0.39052  Biso   1.000  C 
  C61      1.0000 0.96152  0.41981  0.73449  Biso   1.000  C 
  C62      1.0000 0.14329  0.70330  0.73828  Biso   1.000  C 
  C63      1.0000 0.12669  0.60378  0.40474  Biso   1.000  C 
  C64      1.0000 0.11222  0.39768  0.32662  Biso   1.000  C 
  C65      1.0000 0.37961  0.76835  0.95573  Biso   1.000  C 
  C66      1.0000 0.58501  0.64850  0.97662  Biso   1.000  C 
  C67      1.0000 0.69884  0.34429  0.92883  Biso   1.000  C 
  C68      1.0000 0.41784  0.36787  0.14522  Biso   1.000  C 
  C69      1.0000 0.67306  0.13606  0.47955  Biso   1.000  C 
  C70      1.0000 0.74799  0.13224  0.69413  Biso   1.000  C 
  C71      1.0000 0.34179  0.94304  0.72395  Biso   1.000  C 
  C72      1.0000 0.41809  0.94936  0.48698  Biso   1.000  C 
  C73      1.0000 0.84159  0.46927  0.23637  Biso   1.000  C 
  C74      1.0000 0.21250  0.64696  0.19791  Biso   1.000  C 
  C75      1.0000 0.14850  0.63822  0.94876  Biso   1.000  C 
  C76      1.0000 0.96223  0.48820  0.94768  Biso   1.000  C 
  C77      1.0000 0.12267  0.95644  0.64002  Biso   1.000  C 
  C78      1.0000 0.13878  0.12422  0.48453  Biso   1.000  C 
  C79      1.0000 0.97913  0.12803  0.62327  Biso   1.000  C 
  C80      1.0000 0.93057  0.94180  0.43579  Biso   1.000  C 
  C81      1.0000 0.62845  0.13637  0.96966  Biso   1.000  C 
  C82      1.0000 0.45879  0.14156  0.14802  Biso   1.000  C 
  C83      1.0000 0.64761  0.92636  0.18080  Biso   1.000  C 
  C84      1.0000 0.50478  0.97517  0.99776  Biso   1.000  C 
  C85      1.0000 0.46153  0.10919  0.65412  Biso   1.000  C 
  C86      1.0000 0.64468  0.94890  0.64793  Biso   1.000  C 
  C87      1.0000 0.70611  0.93195  0.41117  Biso   1.000  C 
  C88      1.0000 0.39780  0.15368  0.43011  Biso   1.000  C 
  C89      1.0000 0.66028  0.44283  0.11485  Biso   1.000  C 
  C90      1.0000 0.67748  0.67300  0.16745  Biso   1.000  C 
  C91      1.0000 0.43327  0.65266  0.13092  Biso   1.000  C 
  C92      1.0000 0.46876  0.44874  0.95125  Biso   1.000  C 
  C93      1.0000 0.93975  0.70487  0.38481  Biso   1.000  C 
  C94      1.0000 0.97486  0.64413  0.62106  Biso   1.000  C 
  C95      1.0000 0.12625  0.47583  0.60865  Biso   1.000  C 
  C96      1.0000 0.95617  0.45786  0.45528  Biso   1.000  C 
  H1       1.0000 0.99599  0.68828  0.18285  Biso   1.000  H 
  H2       1.0000 0.04225  0.44227  0.13043  Biso   1.000  H 
  H3       1.0000 0.15889  0.41246  0.78560  Biso   1.000  H 
  H4       1.0000 0.90210  0.69417  0.77575  Biso   1.000  H 
  H5       1.0000 0.28823  0.94579  0.41226  Biso   1.000  H 
  H6       1.0000 0.29089  0.18057  0.70395  Biso   1.000  H 
  H7       1.0000 0.79397  0.18954  0.42742  Biso   1.000  H 
  H8       1.0000 0.82127  0.92692  0.68104  Biso   1.000  H 
  H9       1.0000 0.39838  0.28224  0.93618  Biso   1.000  H 
  H10      1.0000 0.69340  0.26929  0.15499  Biso   1.000  H 
  H11      1.0000 0.39489  0.83263  0.15740  Biso   1.000  H 
  H12      1.0000 0.67525  0.77932  0.93597  Biso   1.000  H 
  H13      1.0000 0.38925  0.96016  0.26187  Biso   1.000  H 
  H14      1.0000 0.69523  0.16078  0.28773  Biso   1.000  H 
  H15      1.0000 0.40723  0.15921  0.81827  Biso   1.000  H 
  H16      1.0000 0.68072  0.88782  0.81111  Biso   1.000  H 
  H17      1.0000 0.92249  0.29582  0.40865  Biso   1.000  H 
  H18      1.0000 0.18191  0.31098  0.67897  Biso   1.000  H 
  H19      1.0000 0.16264  0.84372  0.38956  Biso   1.000  H 
  H20      1.0000 0.93733  0.80436  0.67897  Biso   1.000  H 
  H21      1.0000 0.29011  0.41579  0.88959  Biso   1.000  H 
  H22      1.0000 0.17066  0.43642  0.03415  Biso   1.000  H 
  H23      1.0000 0.89639  0.66717  0.05348  Biso   1.000  H 
  H24      1.0000 0.77765  0.67484  0.89030  Biso   1.000  H 
  H25      1.0000 0.41887  0.89515  0.81801  Biso   1.000  H 
  H26      1.0000 0.68995  0.17020  0.80388  Biso   1.000  H 
  H27      1.0000 0.57961  0.18703  0.40065  Biso   1.000  H 
  H28      1.0000 0.49141  0.89783  0.39333  Biso   1.000  H 
  H29      1.0000 0.80673  0.41327  0.88217  Biso   1.000  H 
  H30      1.0000 0.65653  0.55504  0.91790  Biso   1.000  H 
  H31      1.0000 0.29558  0.67427  0.90154  Biso   1.000  H 
  H32      1.0000 0.31845  0.45133  0.18153  Biso   1.000  H 
  H33      1.0000 0.18773  0.67522  0.49672  Biso   1.000  H 
  H34      1.0000 0.17924  0.81349  0.66990  Biso   1.000  H 
  H35      1.0000 0.92736  0.30452  0.67025  Biso   1.000  H 
  H36      1.0000 0.17212  0.30576  0.39933  Biso   1.000  H 
  H37      1.0000 0.92443  0.42381  0.78583  Biso   1.000  H 
  H38      1.0000 0.18494  0.70053  0.78924  Biso   1.000  H 
  H39      1.0000 0.16562  0.54736  0.40039  Biso   1.000  H 
  H40      1.0000 0.14517  0.39405  0.27296  Biso   1.000  H 
  H41      1.0000 0.38665  0.82110  0.92069  Biso   1.000  H 
  H42      1.0000 0.53849  0.66065  0.93400  Biso   1.000  H 
  H43      1.0000 0.67672  0.29452  0.88995  Biso   1.000  H 
  H44      1.0000 0.43232  0.33696  0.20121  Biso   1.000  H 
  H45      1.0000 0.68867  0.18175  0.51956  Biso   1.000  H 
  H46      1.0000 0.79735  0.17402  0.68431  Biso   1.000  H 
  H47      1.0000 0.28388  0.90670  0.72137  Biso   1.000  H 
  H48      1.0000 0.40230  0.90138  0.52530  Biso   1.000  H 
  H49      1.0000 0.88698  0.44153  0.27466  Biso   1.000  H 
  H50      1.0000 0.17142  0.67583  0.23954  Biso   1.000  H 
  H51      1.0000 0.10638  0.61885  0.99216  Biso   1.000  H 
  H52      1.0000 0.95140  0.48418  0.01349  Biso   1.000  H 
  H53      1.0000 0.16900  0.99863  0.66797  Biso   1.000  H 
  H54      1.0000 0.17996  0.10247  0.44221  Biso   1.000  H 
  H55      1.0000 0.04103  0.11472  0.60938  Biso   1.000  H 
  H56      1.0000 0.92468  0.00692  0.43624  Biso   1.000  H 
  H57      1.0000 0.65725  0.10570  0.92026  Biso   1.000  H 
  H58      1.0000 0.42889  0.16181  0.09466  Biso   1.000  H 
  H59      1.0000 0.69235  0.88003  0.17683  Biso   1.000  H 
  H60      1.0000 0.48605  0.02946  0.96398  Biso   1.000  H 
  H61      1.0000 0.65677  0.95256  0.12174  Biso   1.000  H 
  H62      1.0000 0.46277  0.07611  0.13533  Biso   1.000  H 
  H63      1.0000 0.66752  0.18816  0.98115  Biso   1.000  H 
  H64      1.0000 0.45350  0.94793  0.02604  Biso   1.000  H 
  H65      1.0000 0.97494  0.17377  0.67132  Biso   1.000  H 
  H66      1.0000 0.09390  0.07853  0.50048  Biso   1.000  H 
  H67      1.0000 0.07035  0.99429  0.63366  Biso   1.000  H 
  H68      1.0000 0.99120  0.92389  0.41859  Biso   1.000  H 
  H69      1.0000 0.20201  0.66076  0.98214  Biso   1.000  H 
  H70      1.0000 0.26040  0.63712  0.23699  Biso   1.000  H 
  H71      1.0000 0.79546  0.49026  0.28130  Biso   1.000  H 
  H72      1.0000 0.94929  0.43423  0.91849  Biso   1.000  H 
  H73      1.0000 0.50738  0.13295  0.69521  Biso   1.000  H 
  H74      1.0000 0.69269  0.90998  0.62555  Biso   1.000  H 
  H75      1.0000 0.76191  0.91650  0.44042  Biso   1.000  H 
  H76      1.0000 0.43705  0.18017  0.38681  Biso   1.000  H 
  H77      1.0000 0.70241  0.47357  0.15124  Biso   1.000  H 
  H78      1.0000 0.74020  0.68509  0.17198  Biso   1.000  H 
  H79      1.0000 0.38852  0.62012  0.16077  Biso   1.000  H 
  H80      1.0000 0.46186  0.51340  0.93667  Biso   1.000  H 
  H81      1.0000 0.90837  0.68490  0.43913  Biso   1.000  H 
  H82      1.0000 0.95557  0.58863  0.64735  Biso   1.000  H 
  H83      1.0000 0.14696  0.43195  0.56523  Biso   1.000  H 
  H84      1.0000 0.93007  0.50915  0.42684  Biso   1.000  H 
  H85      1.0000 0.10117  0.52715  0.57974  Biso   1.000  H 
  H86      1.0000 0.92577  0.68793  0.61734  Biso   1.000  H 
  H87      1.0000 0.93169  0.76962  0.38103  Biso   1.000  H 
  H88      1.0000 0.90582  0.41661  0.46393  Biso   1.000  H 
  H89      1.0000 0.48369  0.61608  0.12054  Biso   1.000  H 
  H90      1.0000 0.64284  0.72364  0.18218  Biso   1.000  H 
  H91      1.0000 0.60849  0.47958  0.10010  Biso   1.000  H 
  H92      1.0000 0.53332  0.43123  0.94516  Biso   1.000  H 
  H93      1.0000 0.65691  0.89219  0.42688  Biso   1.000  H 
  H94      1.0000 0.62078  0.91504  0.70425  Biso   1.000  H 
  H95      1.0000 0.49117  0.09165  0.60236  Biso   1.000  H 
  H96      1.0000 0.33777  0.17238  0.42597  Biso   1.000  H 
  H97      1.0000 0.81188  0.42034  0.20479  Biso   1.000  H 
  H98      1.0000 0.23462  0.68075  0.14412  Biso   1.000  H 
  H99      1.0000 0.12784  0.68684  0.91261  Biso   1.000  H 
  H100     1.0000 0.02521  0.49735  0.93562  Biso   1.000  H 
  H101     1.0000 0.10795  0.90752  0.68015  Biso   1.000  H 
  H102     1.0000 0.09975  0.16976  0.45619  Biso   1.000  H 
  H103     1.0000 0.95047  0.07580  0.64872  Biso   1.000  H 
  H104     1.0000 0.88759  0.91938  0.39293  Biso   1.000  H 
  H105     1.0000 0.63184  0.09301  0.01552  Biso   1.000  H 
  H106     1.0000 0.41328  0.14063  0.19910  Biso   1.000  H 
  H107     1.0000 0.66986  0.97416  0.22003  Biso   1.000  H 
  H108     1.0000 0.54645  0.99344  0.04358  Biso   1.000  H 
  H109     1.0000 0.42562  0.16324  0.64268  Biso   1.000  H 
  H110     1.0000 0.59510  0.94644  0.60300  Biso   1.000  H 
  H111     1.0000 0.72235  0.91934  0.35173  Biso   1.000  H 
  H112     1.0000 0.41768  0.17733  0.48646  Biso   1.000  H 
  H113     1.0000 0.63676  0.39197  0.15273  Biso   1.000  H 
  H114     1.0000 0.65908  0.62525  0.21001  Biso   1.000  H 
  H115     1.0000 0.45146  0.69570  0.17524  Biso   1.000  H 
  H116     1.0000 0.44115  0.41860  0.89989  Biso   1.000  H 
  H117     1.0000 0.92009  0.68621  0.32761  Biso   1.000  H 
  H118     1.0000 0.99285  0.62868  0.55925  Biso   1.000  H 
  H119     1.0000 0.17474  0.50058  0.64594  Biso   1.000  H 
  H120     1.0000 0.97740  0.48077  0.51379  Biso   1.000  H 
  N1       1.0000 0.93253  0.58135  0.22361  Biso   1.000  N 
  N2       1.0000 0.10926  0.53651  0.18909  Biso   1.000  N 
  N3       1.0000 0.13495  0.52562  0.84953  Biso   1.000  N 
  N4       1.0000 0.95076  0.59714  0.84391  Biso   1.000  N 
  N5       1.0000 0.22395  0.96696  0.52975  Biso   1.000  N 
  N6       1.0000 0.24152  0.14253  0.58979  Biso   1.000  N 
  N7       1.0000 0.86755  0.13917  0.51728  Biso   1.000  N 
  N8       1.0000 0.85759  0.94563  0.56239  Biso   1.000  N 
  N9       1.0000 0.50826  0.21950  0.97199  Biso   1.000  N 
  N10      1.0000 0.58401  0.22499  0.13914  Biso   1.000  N 
  N11      1.0000 0.51850  0.85523  0.15798  Biso   1.000  N 
  N12      1.0000 0.57965  0.85614  0.97389  Biso   1.000  N 
  N13      1.0000 0.51807  0.95772  0.24405  Biso   1.000  N 
  N14      1.0000 0.57481  0.14275  0.24101  Biso   1.000  N 
  N15      1.0000 0.51324  0.13130  0.87063  Biso   1.000  N 
  N16      1.0000 0.58998  0.94622  0.87756  Biso   1.000  N 
  N17      1.0000 0.96501  0.22643  0.51127  Biso   1.000  N 
  N18      1.0000 0.14559  0.23587  0.58420  Biso   1.000  N 
  N19      1.0000 0.12361  0.88646  0.50950  Biso   1.000  N 
  N20      1.0000 0.94895  0.84715  0.55660  Biso   1.000  N 
  N21      1.0000 0.24016  0.52452  0.92851  Biso   1.000  N 
  N22      1.0000 0.20631  0.53513  0.09867  Biso   1.000  N 
  N23      1.0000 0.85644  0.56666  0.11847  Biso   1.000  N 
  N24      1.0000 0.85291  0.58676  0.92855  Biso   1.000  N 
  N25      1.0000 0.45809  0.99882  0.75255  Biso   1.000  N 
  N26      1.0000 0.64706  0.06476  0.74404  Biso   1.000  N 
  N27      1.0000 0.62955  0.06197  0.37922  Biso   1.000  N 
  N28      1.0000 0.45208  0.01973  0.38108  Biso   1.000  N 
  N29      1.0000 0.76174  0.44047  0.00228  Biso   1.000  N 
  N30      1.0000 0.69256  0.60736  0.03774  Biso   1.000  N 
  N31      1.0000 0.34803  0.65394  0.01283  Biso   1.000  N 
  N32      1.0000 0.37180  0.46282  0.06688  Biso   1.000  N 
  N33      1.0000 0.07221  0.71530  0.44987  Biso   1.000  N 
  N34      1.0000 0.07806  0.74764  0.63317  Biso   1.000  N 
  N35      1.0000 0.02517  0.37376  0.62797  Biso   1.000  N 
  N36      1.0000 0.06928  0.36541  0.44825  Biso   1.000  N 
  N37      1.0000 0.02786  0.46820  0.72008  Biso   1.000  N 
  N38      1.0000 0.08026  0.65359  0.72425  Biso   1.000  N 
  N39      1.0000 0.05597  0.61167  0.36647  Biso   1.000  N 
  N40      1.0000 0.04731  0.44249  0.33973  Biso   1.000  N 
  N41      1.0000 0.42019  0.76137  0.03031  Biso   1.000  N 
  N42      1.0000 0.58986  0.68430  0.04904  Biso   1.000  N 
  N43      1.0000 0.65563  0.35307  0.99993  Biso   1.000  N 
  N44      1.0000 0.46556  0.36964  0.07848  Biso   1.000  N 
  N45      1.0000 0.70925  0.06093  0.48422  Biso   1.000  N 
  N46      1.0000 0.74079  0.06535  0.64922  Biso   1.000  N 
  N47      1.0000 0.35180  0.00874  0.67384  Biso   1.000  N 
  N48      1.0000 0.39556  0.02438  0.49695  Biso   1.000  N 
  Zn1      1.0000 0.03050  0.53831  0.27873  Biso   1.000  Zn
  Zn2      1.0000 0.04937  0.55694  0.78552  Biso   1.000  Zn
  Zn3      1.0000 0.30086  0.04444  0.56921  Biso   1.000  Zn
  Zn4      1.0000 0.79590  0.04717  0.55422  Biso   1.000  Zn
  Zn5      1.0000 0.55703  0.29440  0.04510  Biso   1.000  Zn
  Zn6      1.0000 0.53216  0.78764  0.06254  Biso   1.000  Zn
  Zn7      1.0000 0.54385  0.05096  0.30339  Biso   1.000  Zn
  Zn8      1.0000 0.55934  0.03630  0.81032  Biso   1.000  Zn
  Zn9      1.0000 0.05197  0.29871  0.54161  Biso   1.000  Zn
  Zn10     1.0000 0.05126  0.79913  0.53000  Biso   1.000  Zn
  Zn11     1.0000 0.30520  0.55085  0.02761  Biso   1.000  Zn
  Zn12     1.0000 0.79321  0.54532  0.02949  Biso   1.000  Zn
