data_image0
_cell_length_a       16.9932
_cell_length_b       16.9932
_cell_length_c       16.9932
_cell_angle_alpha    90
_cell_angle_beta     90
_cell_angle_gamma    90

_symmetry_space_group_name_H-M    "P 1"
_symmetry_int_tables_number       1

loop_
  _symmetry_equiv_pos_as_xyz
  'x, y, z'

loop_
  _atom_site_label
  _atom_site_occupancy
  _atom_site_fract_x
  _atom_site_fract_y
  _atom_site_fract_z
  _atom_site_thermal_displace_type
  _atom_site_B_iso_or_equiv
  _atom_site_type_symbol
  C1       1.0000 0.88060  0.60822  0.22325  Biso   1.000  C 
  C2       1.0000 0.18988  0.54915  0.18762  Biso   1.000  C 
  C3       1.0000 0.10168  0.48613  0.97110  Biso   1.000  C 
  C4       1.0000 0.76922  0.39309  0.95212  Biso   1.000  C 
  C5       1.0000 0.21511  0.92169  0.53154  Biso   1.000  C 
  C6       1.0000 0.17662  0.19509  0.53202  Biso   1.000  C 
  C7       1.0000 0.94102  0.14023  0.54895  Biso   1.000  C 
  C8       1.0000 0.94266  0.89097  0.51963  Biso   1.000  C 
  C9       1.0000 0.56716  0.21151  0.89041  Biso   1.000  C 
  C10      1.0000 0.56371  0.19252  0.14389  Biso   1.000  C 
  C11      1.0000 0.52781  0.93054  0.13861  Biso   1.000  C 
  C12      1.0000 0.52048  0.91024  0.88662  Biso   1.000  C 
  C13      1.0000 0.42934  0.05032  0.65790  Biso   1.000  C 
  C14      1.0000 0.67841  0.00722  0.65980  Biso   1.000  C 
  C15      1.0000 0.67495  0.03864  0.41140  Biso   1.000  C 
  C16      1.0000 0.42918  0.05060  0.40476  Biso   1.000  C 
  C17      1.0000 0.89344  0.55666  0.98223  Biso   1.000  C 
  C18      1.0000 0.63341  0.72339  0.07437  Biso   1.000  C 
  C19      1.0000 0.37752  0.65730  0.02877  Biso   1.000  C 
  C20      1.0000 0.44365  0.42680  0.99022  Biso   1.000  C 
  C21      1.0000 0.07924  0.69249  0.40383  Biso   1.000  C 
  C22      1.0000 0.04600  0.64016  0.66181  Biso   1.000  C 
  C23      1.0000 0.01282  0.37708  0.73318  Biso   1.000  C 
  C24      1.0000 0.05476  0.42216  0.43072  Biso   1.000  C 
  C25      1.0000 0.98177  0.68502  0.21709  Biso   1.000  C 
  C26      1.0000 0.13764  0.43252  0.21245  Biso   1.000  C 
  C27      1.0000 0.10546  0.35930  0.93401  Biso   1.000  C 
  C28      1.0000 0.78824  0.31988  0.05867  Biso   1.000  C 
  C29      1.0000 0.17558  0.00922  0.61818  Biso   1.000  C 
  C30      1.0000 0.25120  0.21703  0.63468  Biso   1.000  C 
  C31      1.0000 0.86617  0.15391  0.44276  Biso   1.000  C 
  C32      1.0000 0.86514  0.86723  0.61613  Biso   1.000  C 
  C33      1.0000 0.66521  0.17483  0.96669  Biso   1.000  C 
  C34      1.0000 0.65280  0.27015  0.19553  Biso   1.000  C 
  C35      1.0000 0.42203  0.86453  0.17759  Biso   1.000  C 
  C36      1.0000 0.42174  0.95700  0.95570  Biso   1.000  C 
  C37      1.0000 0.43566  0.91995  0.23563  Biso   1.000  C 
  C38      1.0000 0.63887  0.20886  0.24730  Biso   1.000  C 
  C39      1.0000 0.64634  0.11233  0.91652  Biso   1.000  C 
  C40      1.0000 0.43791  0.01031  0.89738  Biso   1.000  C 
  C41      1.0000 0.91324  0.22086  0.44838  Biso   1.000  C 
  C42      1.0000 0.18077  0.25961  0.63900  Biso   1.000  C 
  C43      1.0000 0.12339  0.94449  0.61703  Biso   1.000  C 
  C44      1.0000 0.92611  0.81004  0.61854  Biso   1.000  C 
  C45      1.0000 0.18141  0.38627  0.95274  Biso   1.000  C 
  C46      1.0000 0.19600  0.42299  0.15610  Biso   1.000  C 
  C47      1.0000 0.92154  0.71908  0.17455  Biso   1.000  C 
  C48      1.0000 0.85599  0.32246  0.01600  Biso   1.000  C 
  C49      1.0000 0.48695  0.16441  0.66100  Biso   1.000  C 
  C50      1.0000 0.70968  0.10176  0.74000  Biso   1.000  C 
  C51      1.0000 0.69755  0.96048  0.31175  Biso   1.000  C 
  C52      1.0000 0.42497  0.15597  0.32404  Biso   1.000  C 
  C53      1.0000 0.84392  0.64590  0.90504  Biso   1.000  C 
  C54      1.0000 0.65579  0.63049  0.98147  Biso   1.000  C 
  C55      1.0000 0.28516  0.66227  0.93705  Biso   1.000  C 
  C56      1.0000 0.38977  0.40442  0.10834  Biso   1.000  C 
  C57      1.0000 0.20258  0.67610  0.45103  Biso   1.000  C 
  C58      1.0000 0.09613  0.74013  0.72623  Biso   1.000  C 
  C59      1.0000 0.92593  0.29054  0.69166  Biso   1.000  C 
  C60      1.0000 0.93895  0.41659  0.48715  Biso   1.000  C 
  C61      1.0000 0.90195  0.32125  0.76489  Biso   1.000  C 
  C62      1.0000 0.06935  0.68156  0.78073  Biso   1.000  C 
  C63      1.0000 0.18749  0.61677  0.39498  Biso   1.000  C 
  C64      1.0000 0.93447  0.46863  0.42397  Biso   1.000  C 
  C65      1.0000 0.33347  0.72572  0.92779  Biso   1.000  C 
  C66      1.0000 0.58853  0.67152  0.96424  Biso   1.000  C 
  C67      1.0000 0.88642  0.59307  0.85663  Biso   1.000  C 
  C68      1.0000 0.46722  0.37290  0.10830  Biso   1.000  C 
  C69      1.0000 0.75577  0.95065  0.36861  Biso   1.000  C 
  C70      1.0000 0.77257  0.09023  0.69056  Biso   1.000  C 
  C71      1.0000 0.44325  0.16110  0.59292  Biso   1.000  C 
  C72      1.0000 0.35800  0.15550  0.36943  Biso   1.000  C 
  C73      1.0000 0.83174  0.53827  0.24608  Biso   1.000  C 
  C74      1.0000 0.19292  0.63722  0.18277  Biso   1.000  C 
  C75      1.0000 0.08695  0.56999  0.99086  Biso   1.000  C 
  C76      1.0000 0.73224  0.44325  0.88649  Biso   1.000  C 
  C77      1.0000 0.25637  0.88799  0.46667  Biso   1.000  C 
  C78      1.0000 0.14593  0.14996  0.46438  Biso   1.000  C 
  C79      1.0000 0.97664  0.10619  0.62153  Biso   1.000  C 
  C80      1.0000 0.98163  0.93402  0.45511  Biso   1.000  C 
  C81      1.0000 0.50060  0.26226  0.86135  Biso   1.000  C 
  C82      1.0000 0.50263  0.16139  0.08862  Biso   1.000  C 
  C83      1.0000 0.59915  0.96035  0.09944  Biso   1.000  C 
  C84      1.0000 0.59152  0.86383  0.85897  Biso   1.000  C 
  C85      1.0000 0.39717  0.96918  0.67375  Biso   1.000  C 
  C86      1.0000 0.63500  0.93416  0.62851  Biso   1.000  C 
  C87      1.0000 0.63118  0.09082  0.46482  Biso   1.000  C 
  C88      1.0000 0.46088  0.97151  0.43236  Biso   1.000  C 
  C89      1.0000 0.91552  0.50980  0.05607  Biso   1.000  C 
  C90      1.0000 0.64721  0.76814  0.14846  Biso   1.000  C 
  C91      1.0000 0.42725  0.62488  0.09331  Biso   1.000  C 
  C92      1.0000 0.45503  0.46616  0.91014  Biso   1.000  C 
  C93      1.0000 0.99738  0.72768  0.39976  Biso   1.000  C 
  C94      1.0000 0.01607  0.59195  0.59572  Biso   1.000  C 
  C95      1.0000 0.08418  0.43182  0.74481  Biso   1.000  C 
  C96      1.0000 0.14455  0.41597  0.42997  Biso   1.000  C 
  H1       1.0000 0.04259  0.70524  0.22663  Biso   1.000  H 
  H2       1.0000 0.09715  0.38927  0.23886  Biso   1.000  H 
  H3       1.0000 0.08292  0.29930  0.91382  Biso   1.000  H 
  H4       1.0000 0.78189  0.29568  0.11604  Biso   1.000  H 
  H5       1.0000 0.17964  0.05985  0.65532  Biso   1.000  H 
  H6       1.0000 0.30603  0.22472  0.67239  Biso   1.000  H 
  H7       1.0000 0.82772  0.13661  0.39607  Biso   1.000  H 
  H8       1.0000 0.81402  0.87397  0.65669  Biso   1.000  H 
  H9       1.0000 0.70857  0.17846  0.01754  Biso   1.000  H 
  H10      1.0000 0.67908  0.32610  0.20788  Biso   1.000  H 
  H11      1.0000 0.39623  0.80453  0.18005  Biso   1.000  H 
  H12      1.0000 0.38225  0.95378  0.00468  Biso   1.000  H 
  H13      1.0000 0.40215  0.94715  0.28742  Biso   1.000  H 
  H14      1.0000 0.66463  0.19781  0.30369  Biso   1.000  H 
  H15      1.0000 0.67622  0.05340  0.91073  Biso   1.000  H 
  H16      1.0000 0.40962  0.06995  0.88333  Biso   1.000  H 
  H17      1.0000 0.92951  0.26854  0.40611  Biso   1.000  H 
  H18      1.0000 0.15567  0.29770  0.68588  Biso   1.000  H 
  H19      1.0000 0.07441  0.92161  0.65115  Biso   1.000  H 
  H20      1.0000 0.93590  0.75468  0.64933  Biso   1.000  H 
  H21      1.0000 0.23229  0.35327  0.93387  Biso   1.000  H 
  H22      1.0000 0.22046  0.36987  0.13315  Biso   1.000  H 
  H23      1.0000 0.92215  0.77140  0.13761  Biso   1.000  H 
  H24      1.0000 0.91228  0.29976  0.03163  Biso   1.000  H 
  H25      1.0000 0.52675  0.21335  0.67432  Biso   1.000  H 
  H26      1.0000 0.69332  0.15056  0.78426  Biso   1.000  H 
  H27      1.0000 0.68585  0.93876  0.24877  Biso   1.000  H 
  H28      1.0000 0.44447  0.20434  0.28179  Biso   1.000  H 
  H29      1.0000 0.82050  0.70783  0.89022  Biso   1.000  H 
  H30      1.0000 0.69149  0.58247  0.95044  Biso   1.000  H 
  H31      1.0000 0.23200  0.64982  0.90758  Biso   1.000  H 
  H32      1.0000 0.34464  0.40230  0.15340  Biso   1.000  H 
  H33      1.0000 0.25119  0.68049  0.49178  Biso   1.000  H 
  H34      1.0000 0.12532  0.79378  0.73827  Biso   1.000  H 
  H35      1.0000 0.88977  0.25386  0.65089  Biso   1.000  H 
  H36      1.0000 0.89084  0.38981  0.52286  Biso   1.000  H 
  H37      1.0000 0.85154  0.30368  0.80775  Biso   1.000  H 
  H38      1.0000 0.06525  0.67950  0.85072  Biso   1.000  H 
  H39      1.0000 0.22790  0.57208  0.36353  Biso   1.000  H 
  H40      1.0000 0.88527  0.50736  0.40291  Biso   1.000  H 
  H41      1.0000 0.33497  0.77271  0.88527  Biso   1.000  H 
  H42      1.0000 0.54739  0.67234  0.91311  Biso   1.000  H 
  H43      1.0000 0.91336  0.60494  0.79839  Biso   1.000  H 
  H44      1.0000 0.49816  0.34605  0.15701  Biso   1.000  H 
  H45      1.0000 0.81039  0.91013  0.36660  Biso   1.000  H 
  H46      1.0000 0.82920  0.12338  0.68827  Biso   1.000  H 
  H47      1.0000 0.43786  0.20024  0.54377  Biso   1.000  H 
  H48      1.0000 0.31278  0.20096  0.38162  Biso   1.000  H 
  H49      1.0000 0.79995  0.55237  0.30117  Biso   1.000  H 
  H50      1.0000 0.24329  0.66227  0.15548  Biso   1.000  H 
  H51      1.0000 0.10362  0.58092  0.05527  Biso   1.000  H 
  H52      1.0000 0.74304  0.41160  0.82873  Biso   1.000  H 
  H53      1.0000 0.22450  0.83658  0.44660  Biso   1.000  H 
  H54      1.0000 0.19247  0.13952  0.42149  Biso   1.000  H 
  H55      1.0000 0.95346  0.13216  0.67581  Biso   1.000  H 
  H56      1.0000 0.02474  0.90323  0.42090  Biso   1.000  H 
  H57      1.0000 0.51912  0.29417  0.80961  Biso   1.000  H 
  H58      1.0000 0.47666  0.10435  0.11136  Biso   1.000  H 
  H59      1.0000 0.58665  0.97776  0.03712  Biso   1.000  H 
  H60      1.0000 0.57015  0.80548  0.84847  Biso   1.000  H 
  H61      1.0000 0.62464  0.01410  0.12881  Biso   1.000  H 
  H62      1.0000 0.45300  0.20579  0.08131  Biso   1.000  H 
  H63      1.0000 0.44449  0.23114  0.84108  Biso   1.000  H 
  H64      1.0000 0.60285  0.89221  0.80068  Biso   1.000  H 
  H65      1.0000 0.95756  0.04536  0.61960  Biso   1.000  H 
  H66      1.0000 0.10983  0.09715  0.48207  Biso   1.000  H 
  H67      1.0000 0.26673  0.93037  0.41479  Biso   1.000  H 
  H68      1.0000 0.93624  0.95682  0.41220  Biso   1.000  H 
  H69      1.0000 0.12796  0.60930  0.95786  Biso   1.000  H 
  H70      1.0000 0.14708  0.66060  0.14562  Biso   1.000  H 
  H71      1.0000 0.78365  0.52360  0.20145  Biso   1.000  H 
  H72      1.0000 0.66485  0.44872  0.89271  Biso   1.000  H 
  H73      1.0000 0.36350  0.94367  0.62360  Biso   1.000  H 
  H74      1.0000 0.57016  0.94862  0.62922  Biso   1.000  H 
  H75      1.0000 0.66831  0.13417  0.49242  Biso   1.000  H 
  H76      1.0000 0.51649  0.96347  0.39967  Biso   1.000  H 
  H77      1.0000 0.96019  0.46517  0.04252  Biso   1.000  H 
  H78      1.0000 0.67570  0.72871  0.18988  Biso   1.000  H 
  H79      1.0000 0.48338  0.59898  0.07508  Biso   1.000  H 
  H80      1.0000 0.42544  0.52218  0.90064  Biso   1.000  H 
  H81      1.0000 0.97786  0.75902  0.45317  Biso   1.000  H 
  H82      1.0000 0.98534  0.54281  0.62554  Biso   1.000  H 
  H83      1.0000 0.11746  0.44613  0.68966  Biso   1.000  H 
  H84      1.0000 0.17087  0.44910  0.48248  Biso   1.000  H 
  H85      1.0000 0.06048  0.48975  0.76079  Biso   1.000  H 
  H86      1.0000 0.96992  0.62582  0.56051  Biso   1.000  H 
  H87      1.0000 0.98732  0.77026  0.34912  Biso   1.000  H 
  H88      1.0000 0.16354  0.35293  0.43702  Biso   1.000  H 
  H89      1.0000 0.44403  0.66532  0.14258  Biso   1.000  H 
  H90      1.0000 0.68308  0.82138  0.14239  Biso   1.000  H 
  H91      1.0000 0.94603  0.54545  0.09988  Biso   1.000  H 
  H92      1.0000 0.51807  0.48376  0.91223  Biso   1.000  H 
  H93      1.0000 0.58090  0.12024  0.43878  Biso   1.000  H 
  H94      1.0000 0.65991  0.92244  0.57011  Biso   1.000  H 
  H95      1.0000 0.43380  0.92022  0.69795  Biso   1.000  H 
  H96      1.0000 0.47164  0.97368  0.49630  Biso   1.000  H 
  H97      1.0000 0.86917  0.48418  0.25718  Biso   1.000  H 
  H98      1.0000 0.18751  0.66087  0.24121  Biso   1.000  H 
  H99      1.0000 0.02581  0.58751  0.98363  Biso   1.000  H 
  H100     1.0000 0.76053  0.50079  0.88394  Biso   1.000  H 
  H101     1.0000 0.31442  0.86611  0.47869  Biso   1.000  H 
  H102     1.0000 0.09923  0.18390  0.43844  Biso   1.000  H 
  H103     1.0000 0.04069  0.12051  0.62407  Biso   1.000  H 
  H104     1.0000 0.01083  0.98502  0.47655  Biso   1.000  H 
  H105     1.0000 0.49332  0.30718  0.91127  Biso   1.000  H 
  H106     1.0000 0.52684  0.15244  0.02943  Biso   1.000  H 
  H107     1.0000 0.64338  0.91163  0.09057  Biso   1.000  H 
  H108     1.0000 0.64007  0.86969  0.90085  Biso   1.000  H 
  H109     1.0000 0.34098  0.97268  0.71596  Biso   1.000  H 
  H110     1.0000 0.64686  0.88360  0.66406  Biso   1.000  H 
  H111     1.0000 0.60570  0.05459  0.51559  Biso   1.000  H 
  H112     1.0000 0.42411  0.92116  0.41729  Biso   1.000  H 
  H113     1.0000 0.86409  0.48382  0.08354  Biso   1.000  H 
  H114     1.0000 0.58490  0.78516  0.17405  Biso   1.000  H 
  H115     1.0000 0.39748  0.57533  0.11997  Biso   1.000  H 
  H116     1.0000 0.44913  0.43186  0.85484  Biso   1.000  H 
  H117     1.0000 0.95287  0.67757  0.38705  Biso   1.000  H 
  H118     1.0000 0.05770  0.56778  0.55173  Biso   1.000  H 
  H119     1.0000 0.12782  0.41194  0.78826  Biso   1.000  H 
  H120     1.0000 0.16401  0.43964  0.37567  Biso   1.000  H 
  N1       1.0000 0.95539  0.61321  0.24897  Biso   1.000  N 
  N2       1.0000 0.13313  0.51382  0.23082  Biso   1.000  N 
  N3       1.0000 0.05526  0.42437  0.94877  Biso   1.000  N 
  N4       1.0000 0.72965  0.36390  0.01521  Biso   1.000  N 
  N5       1.0000 0.23114  0.99395  0.55944  Biso   1.000  N 
  N6       1.0000 0.24911  0.18028  0.55910  Biso   1.000  N 
  N7       1.0000 0.88322  0.10454  0.50529  Biso   1.000  N 
  N8       1.0000 0.87458  0.91798  0.55199  Biso   1.000  N 
  N9       1.0000 0.61488  0.23565  0.95114  Biso   1.000  N 
  N10      1.0000 0.60280  0.26245  0.13148  Biso   1.000  N 
  N11      1.0000 0.48077  0.87016  0.12036  Biso   1.000  N 
  N12      1.0000 0.47458  0.89314  0.94712  Biso   1.000  N 
  N13      1.0000 0.50605  0.96218  0.21114  Biso   1.000  N 
  N14      1.0000 0.58494  0.15933  0.21424  Biso   1.000  N 
  N15      1.0000 0.58071  0.13505  0.86951  Biso   1.000  N 
  N16      1.0000 0.49864  0.98018  0.85060  Biso   1.000  N 
  N17      1.0000 0.96288  0.20901  0.51390  Biso   1.000  N 
  N18      1.0000 0.13663  0.24746  0.57308  Biso   1.000  N 
  N19      1.0000 0.15412  0.88948  0.56788  Biso   1.000  N 
  N20      1.0000 0.97357  0.82209  0.55245  Biso   1.000  N 
  N21      1.0000 0.17866  0.46345  0.97878  Biso   1.000  N 
  N22      1.0000 0.23241  0.49794  0.14316  Biso   1.000  N 
  N23      1.0000 0.85597  0.67237  0.18214  Biso   1.000  N 
  N24      1.0000 0.84781  0.36680  0.94797  Biso   1.000  N 
  N25      1.0000 0.47673  0.09509  0.70117  Biso   1.000  N 
  N26      1.0000 0.65382  0.04368  0.72854  Biso   1.000  N 
  N27      1.0000 0.64875  0.02003  0.33679  Biso   1.000  N 
  N28      1.0000 0.46890  0.08813  0.34507  Biso   1.000  N 
  N29      1.0000 0.84823  0.62233  0.98347  Biso   1.000  N 
  N30      1.0000 0.68647  0.66767  0.04769  Biso   1.000  N 
  N31      1.0000 0.31020  0.62037  0.00084  Biso   1.000  N 
  N32      1.0000 0.37500  0.43903  0.03393  Biso   1.000  N 
  N33      1.0000 0.13363  0.72010  0.45699  Biso   1.000  N 
  N34      1.0000 0.08640  0.71086  0.65008  Biso   1.000  N 
  N35      1.0000 0.99668  0.32637  0.67249  Biso   1.000  N 
  N36      1.0000 0.01611  0.38975  0.49152  Biso   1.000  N 
  N37      1.0000 0.95694  0.37588  0.78952  Biso   1.000  N 
  N38      1.0000 0.04162  0.61805  0.73646  Biso   1.000  N 
  N39      1.0000 0.11234  0.63341  0.35989  Biso   1.000  N 
  N40      1.0000 0.00934  0.47768  0.38994  Biso   1.000  N 
  N41      1.0000 0.39189  0.72313  0.98644  Biso   1.000  N 
  N42      1.0000 0.57493  0.73059  0.01999  Biso   1.000  N 
  N43      1.0000 0.91412  0.53556  0.90977  Biso   1.000  N 
  N44      1.0000 0.49954  0.39030  0.03516  Biso   1.000  N 
  N45      1.0000 0.74113  0.00109  0.43212  Biso   1.000  N 
  N46      1.0000 0.74790  0.03412  0.63365  Biso   1.000  N 
  N47      1.0000 0.40706  0.08642  0.59060  Biso   1.000  N 
  N48      1.0000 0.35513  0.08760  0.41673  Biso   1.000  N 
  Zn1      1.0000 0.04633  0.55135  0.30037  Biso   1.000  Zn
  Zn2      1.0000 0.94536  0.41755  0.89605  Biso   1.000  Zn
  Zn3      1.0000 0.30665  0.07821  0.52657  Biso   1.000  Zn
  Zn4      1.0000 0.80939  0.01669  0.53832  Biso   1.000  Zn
  Zn5      1.0000 0.61573  0.32816  0.02860  Biso   1.000  Zn
  Zn6      1.0000 0.48037  0.79869  0.01961  Biso   1.000  Zn
  Zn7      1.0000 0.55446  0.05737  0.27599  Biso   1.000  Zn
  Zn8      1.0000 0.55383  0.05588  0.78521  Biso   1.000  Zn
  Zn9      1.0000 0.03259  0.29382  0.56040  Biso   1.000  Zn
  Zn10     1.0000 0.09293  0.78259  0.55831  Biso   1.000  Zn
  Zn11     1.0000 0.27853  0.51460  0.03071  Biso   1.000  Zn
  Zn12     1.0000 0.79755  0.65551  0.08449  Biso   1.000  Zn
