data_image0
_cell_length_a       16.9932
_cell_length_b       16.9932
_cell_length_c       16.9932
_cell_angle_alpha    90
_cell_angle_beta     90
_cell_angle_gamma    90

_symmetry_space_group_name_H-M    "P 1"
_symmetry_int_tables_number       1

loop_
  _symmetry_equiv_pos_as_xyz
  'x, y, z'

loop_
  _atom_site_label
  _atom_site_occupancy
  _atom_site_fract_x
  _atom_site_fract_y
  _atom_site_fract_z
  _atom_site_thermal_displace_type
  _atom_site_B_iso_or_equiv
  _atom_site_type_symbol
  C1       1.0000 0.94272  0.55524  0.17119  Biso   1.000  C 
  C2       1.0000 0.18706  0.53657  0.17278  Biso   1.000  C 
  C3       1.0000 0.18460  0.54621  0.92467  Biso   1.000  C 
  C4       1.0000 0.93836  0.54855  0.94431  Biso   1.000  C 
  C5       1.0000 0.15867  0.92927  0.52047  Biso   1.000  C 
  C6       1.0000 0.16447  0.19241  0.54310  Biso   1.000  C 
  C7       1.0000 0.92343  0.16753  0.56619  Biso   1.000  C 
  C8       1.0000 0.89553  0.91578  0.53448  Biso   1.000  C 
  C9       1.0000 0.54110  0.15564  0.90466  Biso   1.000  C 
  C10      1.0000 0.53061  0.14493  0.15571  Biso   1.000  C 
  C11      1.0000 0.55235  0.91547  0.14929  Biso   1.000  C 
  C12      1.0000 0.53651  0.91313  0.91000  Biso   1.000  C 
  C13      1.0000 0.41953  0.05081  0.64305  Biso   1.000  C 
  C14      1.0000 0.65721  0.05043  0.66160  Biso   1.000  C 
  C15      1.0000 0.67848  0.01352  0.40868  Biso   1.000  C 
  C16      1.0000 0.38957  0.02093  0.40116  Biso   1.000  C 
  C17      1.0000 0.67542  0.40427  0.05224  Biso   1.000  C 
  C18      1.0000 0.68679  0.65979  0.02993  Biso   1.000  C 
  C19      1.0000 0.44079  0.65276  0.04161  Biso   1.000  C 
  C20      1.0000 0.43407  0.40864  0.03500  Biso   1.000  C 
  C21      1.0000 0.06094  0.68615  0.42958  Biso   1.000  C 
  C22      1.0000 0.03101  0.67691  0.68752  Biso   1.000  C 
  C23      1.0000 0.05186  0.43045  0.68658  Biso   1.000  C 
  C24      1.0000 0.04374  0.43672  0.41865  Biso   1.000  C 
  C25      1.0000 0.95735  0.43778  0.22811  Biso   1.000  C 
  C26      1.0000 0.18697  0.65137  0.22923  Biso   1.000  C 
  C27      1.0000 0.18410  0.43182  0.86500  Biso   1.000  C 
  C28      1.0000 0.93926  0.66660  0.88837  Biso   1.000  C 
  C29      1.0000 0.15133  0.00472  0.62367  Biso   1.000  C 
  C30      1.0000 0.25530  0.21835  0.62964  Biso   1.000  C 
  C31      1.0000 0.84501  0.19177  0.46832  Biso   1.000  C 
  C32      1.0000 0.82146  0.89955  0.64329  Biso   1.000  C 
  C33      1.0000 0.43801  0.23782  0.90672  Biso   1.000  C 
  C34      1.0000 0.63906  0.21574  0.16794  Biso   1.000  C 
  C35      1.0000 0.44523  0.84663  0.14890  Biso   1.000  C 
  C36      1.0000 0.64237  0.84395  0.87203  Biso   1.000  C 
  C37      1.0000 0.44170  0.89822  0.21734  Biso   1.000  C 
  C38      1.0000 0.63923  0.16764  0.23165  Biso   1.000  C 
  C39      1.0000 0.42505  0.17829  0.85341  Biso   1.000  C 
  C40      1.0000 0.63135  0.90610  0.81976  Biso   1.000  C 
  C41      1.0000 0.90005  0.24999  0.47432  Biso   1.000  C 
  C42      1.0000 0.19213  0.26745  0.64321  Biso   1.000  C 
  C43      1.0000 0.09348  0.94858  0.63191  Biso   1.000  C 
  C44      1.0000 0.88420  0.84244  0.64420  Biso   1.000  C 
  C45      1.0000 0.24439  0.43018  0.92012  Biso   1.000  C 
  C46      1.0000 0.24675  0.65074  0.17234  Biso   1.000  C 
  C47      1.0000 0.90070  0.43252  0.17127  Biso   1.000  C 
  C48      1.0000 0.87111  0.65731  0.93673  Biso   1.000  C 
  C49      1.0000 0.40497  0.93352  0.70899  Biso   1.000  C 
  C50      1.0000 0.65684  0.15971  0.72950  Biso   1.000  C 
  C51      1.0000 0.59875  0.11694  0.41590  Biso   1.000  C 
  C52      1.0000 0.40180  0.13022  0.33484  Biso   1.000  C 
  C53      1.0000 0.76214  0.38716  0.96093  Biso   1.000  C 
  C54      1.0000 0.73064  0.66463  0.15284  Biso   1.000  C 
  C55      1.0000 0.36241  0.66311  0.93858  Biso   1.000  C 
  C56      1.0000 0.37279  0.39530  0.14790  Biso   1.000  C 
  C57      1.0000 0.94357  0.74067  0.41507  Biso   1.000  C 
  C58      1.0000 0.14534  0.74115  0.68905  Biso   1.000  C 
  C59      1.0000 0.95312  0.34962  0.69579  Biso   1.000  C 
  C60      1.0000 0.15509  0.37148  0.43852  Biso   1.000  C 
  C61      1.0000 0.94915  0.40357  0.75654  Biso   1.000  C 
  C62      1.0000 0.14979  0.67635  0.74271  Biso   1.000  C 
  C63      1.0000 0.95001  0.68075  0.36062  Biso   1.000  C 
  C64      1.0000 0.16704  0.42791  0.38462  Biso   1.000  C 
  C65      1.0000 0.42176  0.71908  0.93310  Biso   1.000  C 
  C66      1.0000 0.68312  0.73262  0.13684  Biso   1.000  C 
  C67      1.0000 0.70324  0.33154  0.94626  Biso   1.000  C 
  C68      1.0000 0.43194  0.34073  0.14788  Biso   1.000  C 
  C69      1.0000 0.65905  0.13143  0.46705  Biso   1.000  C 
  C70      1.0000 0.72513  0.15998  0.68344  Biso   1.000  C 
  C71      1.0000 0.35128  0.93711  0.64741  Biso   1.000  C 
  C72      1.0000 0.34338  0.13969  0.38910  Biso   1.000  C 
  C73      1.0000 0.95295  0.63918  0.14983  Biso   1.000  C 
  C74      1.0000 0.16313  0.45560  0.15154  Biso   1.000  C 
  C75      1.0000 0.16057  0.62366  0.95940  Biso   1.000  C 
  C76      1.0000 0.97188  0.46982  0.97072  Biso   1.000  C 
  C77      1.0000 0.19388  0.89382  0.44646  Biso   1.000  C 
  C78      1.0000 0.12287  0.15448  0.47161  Biso   1.000  C 
  C79      1.0000 0.96080  0.12445  0.63699  Biso   1.000  C 
  C80      1.0000 0.93378  0.95676  0.46595  Biso   1.000  C 
  C81      1.0000 0.62054  0.12692  0.92545  Biso   1.000  C 
  C82      1.0000 0.45431  0.11464  0.11923  Biso   1.000  C 
  C83      1.0000 0.63162  0.94727  0.12579  Biso   1.000  C 
  C84      1.0000 0.46264  0.93396  0.95050  Biso   1.000  C 
  C85      1.0000 0.44584  0.13282  0.62638  Biso   1.000  C 
  C86      1.0000 0.62588  0.98011  0.61594  Biso   1.000  C 
  C87      1.0000 0.71160  0.93311  0.38821  Biso   1.000  C 
  C88      1.0000 0.41194  0.93682  0.43021  Biso   1.000  C 
  C89      1.0000 0.63863  0.43093  0.12647  Biso   1.000  C 
  C90      1.0000 0.66823  0.62515  0.95151  Biso   1.000  C 
  C91      1.0000 0.48310  0.62600  0.11428  Biso   1.000  C 
  C92      1.0000 0.45914  0.44996  0.96170  Biso   1.000  C 
  C93      1.0000 0.14016  0.67778  0.45831  Biso   1.000  C 
  C94      1.0000 0.94525  0.65335  0.66944  Biso   1.000  C 
  C95      1.0000 0.12363  0.47245  0.65873  Biso   1.000  C 
  C96      1.0000 0.96407  0.46789  0.42954  Biso   1.000  C 
  H1       1.0000 0.97759  0.38917  0.26470  Biso   1.000  H 
  H2       1.0000 0.16861  0.69858  0.26718  Biso   1.000  H 
  H3       1.0000 0.16426  0.38941  0.82008  Biso   1.000  H 
  H4       1.0000 0.95610  0.71934  0.85441  Biso   1.000  H 
  H5       1.0000 0.17432  0.04444  0.66688  Biso   1.000  H 
  H6       1.0000 0.31789  0.22390  0.65663  Biso   1.000  H 
  H7       1.0000 0.80299  0.17024  0.41967  Biso   1.000  H 
  H8       1.0000 0.78349  0.91903  0.69127  Biso   1.000  H 
  H9       1.0000 0.39775  0.28411  0.92585  Biso   1.000  H 
  H10      1.0000 0.68555  0.25647  0.14585  Biso   1.000  H 
  H11      1.0000 0.39763  0.80735  0.12722  Biso   1.000  H 
  H12      1.0000 0.68381  0.79654  0.87869  Biso   1.000  H 
  H13      1.0000 0.39316  0.91184  0.25068  Biso   1.000  H 
  H14      1.0000 0.68310  0.16693  0.27994  Biso   1.000  H 
  H15      1.0000 0.37393  0.16697  0.81348  Biso   1.000  H 
  H16      1.0000 0.66321  0.92891  0.76899  Biso   1.000  H 
  H17      1.0000 0.90538  0.30302  0.43279  Biso   1.000  H 
  H18      1.0000 0.19078  0.31375  0.68823  Biso   1.000  H 
  H19      1.0000 0.04840  0.93583  0.67691  Biso   1.000  H 
  H20      1.0000 0.90486  0.80000  0.68617  Biso   1.000  H 
  H21      1.0000 0.27731  0.38065  0.94572  Biso   1.000  H 
  H22      1.0000 0.28955  0.69609  0.15049  Biso   1.000  H 
  H23      1.0000 0.87015  0.37957  0.15428  Biso   1.000  H 
  H24      1.0000 0.83114  0.70740  0.95187  Biso   1.000  H 
  H25      1.0000 0.42457  0.88587  0.75032  Biso   1.000  H 
  H26      1.0000 0.63571  0.20528  0.77001  Biso   1.000  H 
  H27      1.0000 0.54332  0.15017  0.41210  Biso   1.000  H 
  H28      1.0000 0.42965  0.16966  0.28991  Biso   1.000  H 
  H29      1.0000 0.81420  0.40045  0.92535  Biso   1.000  H 
  H30      1.0000 0.76671  0.64287  0.19802  Biso   1.000  H 
  H31      1.0000 0.30710  0.64698  0.90221  Biso   1.000  H 
  H32      1.0000 0.32985  0.40775  0.19500  Biso   1.000  H 
  H33      1.0000 0.88747  0.76859  0.43450  Biso   1.000  H 
  H34      1.0000 0.17849  0.79417  0.68101  Biso   1.000  H 
  H35      1.0000 0.91162  0.30768  0.67395  Biso   1.000  H 
  H36      1.0000 0.20172  0.33750  0.47005  Biso   1.000  H 
  H37      1.0000 0.91336  0.40472  0.81249  Biso   1.000  H 
  H38      1.0000 0.20121  0.65880  0.77952  Biso   1.000  H 
  H39      1.0000 0.90798  0.66856  0.31698  Biso   1.000  H 
  H40      1.0000 0.21751  0.44511  0.35100  Biso   1.000  H 
  H41      1.0000 0.43917  0.76260  0.88567  Biso   1.000  H 
  H42      1.0000 0.66308  0.78478  0.16998  Biso   1.000  H 
  H43      1.0000 0.69211  0.28969  0.89869  Biso   1.000  H 
  H44      1.0000 0.44357  0.29685  0.19086  Biso   1.000  H 
  H45      1.0000 0.67526  0.18566  0.50651  Biso   1.000  H 
  H46      1.0000 0.76672  0.20819  0.67613  Biso   1.000  H 
  H47      1.0000 0.30963  0.88829  0.63065  Biso   1.000  H 
  H48      1.0000 0.30646  0.19188  0.40139  Biso   1.000  H 
  H49      1.0000 0.98511  0.67341  0.18959  Biso   1.000  H 
  H50      1.0000 0.09904  0.45448  0.14959  Biso   1.000  H 
  H51      1.0000 0.19037  0.62696  0.01556  Biso   1.000  H 
  H52      1.0000 0.02792  0.48055  0.00161  Biso   1.000  H 
  H53      1.0000 0.23409  0.84482  0.46009  Biso   1.000  H 
  H54      1.0000 0.16949  0.12038  0.44188  Biso   1.000  H 
  H55      1.0000 0.91981  0.09010  0.67270  Biso   1.000  H 
  H56      1.0000 0.89711  0.00877  0.44853  Biso   1.000  H 
  H57      1.0000 0.62418  0.06498  0.90905  Biso   1.000  H 
  H58      1.0000 0.47040  0.06394  0.08112  Biso   1.000  H 
  H59      1.0000 0.63471  0.94769  0.05812  Biso   1.000  H 
  H60      1.0000 0.47808  0.96887  0.00369  Biso   1.000  H 
  H61      1.0000 0.63687  0.00818  0.14369  Biso   1.000  H 
  H62      1.0000 0.41173  0.09312  0.16500  Biso   1.000  H 
  H63      1.0000 0.66887  0.15035  0.89531  Biso   1.000  H 
  H64      1.0000 0.42819  0.97954  0.91638  Biso   1.000  H 
  H65      1.0000 0.00870  0.08511  0.62191  Biso   1.000  H 
  H66      1.0000 0.07324  0.11042  0.49296  Biso   1.000  H 
  H67      1.0000 0.14571  0.87048  0.40146  Biso   1.000  H 
  H68      1.0000 0.99194  0.97762  0.49163  Biso   1.000  H 
  H69      1.0000 0.17901  0.67354  0.92525  Biso   1.000  H 
  H70      1.0000 0.18731  0.43466  0.09964  Biso   1.000  H 
  H71      1.0000 0.98775  0.64075  0.09576  Biso   1.000  H 
  H72      1.0000 0.92822  0.43863  0.00766  Biso   1.000  H 
  H73      1.0000 0.42109  0.15143  0.56937  Biso   1.000  H 
  H74      1.0000 0.57914  0.95394  0.65228  Biso   1.000  H 
  H75      1.0000 0.72230  0.90080  0.44670  Biso   1.000  H 
  H76      1.0000 0.44234  0.93249  0.48652  Biso   1.000  H 
  H77      1.0000 0.64455  0.39332  0.17872  Biso   1.000  H 
  H78      1.0000 0.60540  0.63182  0.93087  Biso   1.000  H 
  H79      1.0000 0.51693  0.57113  0.10431  Biso   1.000  H 
  H80      1.0000 0.41502  0.48842  0.93675  Biso   1.000  H 
  H81      1.0000 0.13803  0.66452  0.52295  Biso   1.000  H 
  H82      1.0000 0.93795  0.59053  0.65836  Biso   1.000  H 
  H83      1.0000 0.16310  0.49075  0.70785  Biso   1.000  H 
  H84      1.0000 0.93488  0.45035  0.48441  Biso   1.000  H 
  H85      1.0000 0.15365  0.43548  0.61113  Biso   1.000  H 
  H86      1.0000 0.90183  0.66482  0.71527  Biso   1.000  H 
  H87      1.0000 0.16662  0.63037  0.42652  Biso   1.000  H 
  H88      1.0000 0.96672  0.53147  0.43131  Biso   1.000  H 
  H89      1.0000 0.51938  0.67254  0.13806  Biso   1.000  H 
  H90      1.0000 0.70533  0.64329  0.90322  Biso   1.000  H 
  H91      1.0000 0.65851  0.49149  0.14102  Biso   1.000  H 
  H92      1.0000 0.50823  0.49290  0.97248  Biso   1.000  H 
  H93      1.0000 0.66878  0.89850  0.35306  Biso   1.000  H 
  H94      1.0000 0.59972  0.99125  0.55545  Biso   1.000  H 
  H95      1.0000 0.41854  0.16877  0.67266  Biso   1.000  H 
  H96      1.0000 0.35132  0.90812  0.44293  Biso   1.000  H 
  H97      1.0000 0.89610  0.67072  0.14913  Biso   1.000  H 
  H98      1.0000 0.17899  0.41920  0.20420  Biso   1.000  H 
  H99      1.0000 0.09779  0.62038  0.97515  Biso   1.000  H 
  H100     1.0000 0.98373  0.43437  0.91667  Biso   1.000  H 
  H101     1.0000 0.22218  0.93614  0.40660  Biso   1.000  H 
  H102     1.0000 0.09754  0.20451  0.43670  Biso   1.000  H 
  H103     1.0000 0.98876  0.16879  0.67715  Biso   1.000  H 
  H104     1.0000 0.94487  0.91864  0.41679  Biso   1.000  H 
  H105     1.0000 0.63451  0.13645  0.99146  Biso   1.000  H 
  H106     1.0000 0.42365  0.16376  0.08627  Biso   1.000  H 
  H107     1.0000 0.68020  0.90723  0.13966  Biso   1.000  H 
  H108     1.0000 0.42456  0.88398  0.97226  Biso   1.000  H 
  H109     1.0000 0.51090  0.13706  0.63117  Biso   1.000  H 
  H110     1.0000 0.67088  0.93691  0.60990  Biso   1.000  H 
  H111     1.0000 0.76747  0.94176  0.35748  Biso   1.000  H 
  H112     1.0000 0.44144  0.90110  0.38350  Biso   1.000  H 
  H113     1.0000 0.57335  0.44733  0.12294  Biso   1.000  H 
  H114     1.0000 0.67468  0.56043  0.94553  Biso   1.000  H 
  H115     1.0000 0.44304  0.60909  0.16245  Biso   1.000  H 
  H116     1.0000 0.47988  0.41706  0.91126  Biso   1.000  H 
  H117     1.0000 0.17703  0.73391  0.45027  Biso   1.000  H 
  H118     1.0000 0.92189  0.68345  0.61407  Biso   1.000  H 
  H119     1.0000 0.10743  0.52775  0.62722  Biso   1.000  H 
  H120     1.0000 0.93111  0.45522  0.37546  Biso   1.000  H 
  N1       1.0000 0.97975  0.51519  0.23175  Biso   1.000  N 
  N2       1.0000 0.15413  0.58015  0.22901  Biso   1.000  N 
  N3       1.0000 0.15077  0.50529  0.86535  Biso   1.000  N 
  N4       1.0000 0.97900  0.59384  0.88850  Biso   1.000  N 
  N5       1.0000 0.19348  0.99266  0.55733  Biso   1.000  N 
  N6       1.0000 0.23876  0.17328  0.56416  Biso   1.000  N 
  N7       1.0000 0.86240  0.13597  0.52872  Biso   1.000  N 
  N8       1.0000 0.83221  0.94781  0.57353  Biso   1.000  N 
  N9       1.0000 0.51141  0.22154  0.94036  Biso   1.000  N 
  N10      1.0000 0.57137  0.20518  0.12623  Biso   1.000  N 
  N11      1.0000 0.51276  0.85971  0.10617  Biso   1.000  N 
  N12      1.0000 0.58057  0.84507  0.92896  Biso   1.000  N 
  N13      1.0000 0.50953  0.94253  0.21378  Biso   1.000  N 
  N14      1.0000 0.56959  0.12014  0.22264  Biso   1.000  N 
  N15      1.0000 0.48953  0.12940  0.84958  Biso   1.000  N 
  N16      1.0000 0.56557  0.94901  0.84504  Biso   1.000  N 
  N17      1.0000 0.95117  0.23610  0.53495  Biso   1.000  N 
  N18      1.0000 0.13178  0.24977  0.59308  Biso   1.000  N 
  N19      1.0000 0.10084  0.89818  0.56992  Biso   1.000  N 
  N20      1.0000 0.92790  0.85471  0.57758  Biso   1.000  N 
  N21      1.0000 0.24119  0.50153  0.96082  Biso   1.000  N 
  N22      1.0000 0.24628  0.57571  0.13786  Biso   1.000  N 
  N23      1.0000 0.88790  0.50549  0.13546  Biso   1.000  N 
  N24      1.0000 0.87220  0.58298  0.96842  Biso   1.000  N 
  N25      1.0000 0.44755  0.00679  0.70197  Biso   1.000  N 
  N26      1.0000 0.61373  0.09244  0.71953  Biso   1.000  N 
  N27      1.0000 0.60954  0.04444  0.37998  Biso   1.000  N 
  N28      1.0000 0.43130  0.05224  0.33987  Biso   1.000  N 
  N29      1.0000 0.74646  0.43163  0.02946  Biso   1.000  N 
  N30      1.0000 0.73417  0.62135  0.08130  Biso   1.000  N 
  N31      1.0000 0.37514  0.62135  0.01083  Biso   1.000  N 
  N32      1.0000 0.37343  0.43887  0.07900  Biso   1.000  N 
  N33      1.0000 0.01245  0.74808  0.45485  Biso   1.000  N 
  N34      1.0000 0.07196  0.73937  0.65419  Biso   1.000  N 
  N35      1.0000 0.01702  0.36675  0.64843  Biso   1.000  N 
  N36      1.0000 0.07722  0.37500  0.45891  Biso   1.000  N 
  N37      1.0000 0.01307  0.45202  0.75382  Biso   1.000  N 
  N38      1.0000 0.07764  0.63506  0.73973  Biso   1.000  N 
  N39      1.0000 0.02548  0.64791  0.36911  Biso   1.000  N 
  N40      1.0000 0.09904  0.46950  0.37287  Biso   1.000  N 
  N41      1.0000 0.46868  0.71301  0.99628  Biso   1.000  N 
  N42      1.0000 0.65357  0.72822  0.06011  Biso   1.000  N 
  N43      1.0000 0.64642  0.34457  0.00633  Biso   1.000  N 
  N44      1.0000 0.47176  0.34693  0.07454  Biso   1.000  N 
  N45      1.0000 0.70917  0.06342  0.46375  Biso   1.000  N 
  N46      1.0000 0.72315  0.08614  0.64454  Biso   1.000  N 
  N47      1.0000 0.35591  0.00984  0.60533  Biso   1.000  N 
  N48      1.0000 0.33131  0.07058  0.42915  Biso   1.000  N 
  Zn1      1.0000 0.06833  0.56354  0.29869  Biso   1.000  Zn
  Zn2      1.0000 0.05529  0.55087  0.81124  Biso   1.000  Zn
  Zn3      1.0000 0.27906  0.06369  0.52779  Biso   1.000  Zn
  Zn4      1.0000 0.78682  0.05510  0.55332  Biso   1.000  Zn
  Zn5      1.0000 0.55490  0.27640  0.03607  Biso   1.000  Zn
  Zn6      1.0000 0.56207  0.78717  0.02891  Biso   1.000  Zn
  Zn7      1.0000 0.54061  0.02624  0.29401  Biso   1.000  Zn
  Zn8      1.0000 0.52638  0.04273  0.78533  Biso   1.000  Zn
  Zn9      1.0000 0.04355  0.30925  0.55015  Biso   1.000  Zn
  Zn10     1.0000 0.03078  0.80276  0.55601  Biso   1.000  Zn
  Zn11     1.0000 0.31221  0.53218  0.05140  Biso   1.000  Zn
  Zn12     1.0000 0.80291  0.53428  0.06361  Biso   1.000  Zn
