data_image0
_cell_length_a       16.9932
_cell_length_b       16.9932
_cell_length_c       16.9932
_cell_angle_alpha    90
_cell_angle_beta     90
_cell_angle_gamma    90

_symmetry_space_group_name_H-M    "P 1"
_symmetry_int_tables_number       1

loop_
  _symmetry_equiv_pos_as_xyz
  'x, y, z'

loop_
  _atom_site_label
  _atom_site_occupancy
  _atom_site_fract_x
  _atom_site_fract_y
  _atom_site_fract_z
  _atom_site_thermal_displace_type
  _atom_site_B_iso_or_equiv
  _atom_site_type_symbol
  C1       1.0000 0.90710  0.55266  0.16125  Biso   1.000  C 
  C2       1.0000 0.16031  0.54688  0.20126  Biso   1.000  C 
  C3       1.0000 0.20571  0.53988  0.92796  Biso   1.000  C 
  C4       1.0000 0.93893  0.54664  0.90427  Biso   1.000  C 
  C5       1.0000 0.17515  0.91486  0.51671  Biso   1.000  C 
  C6       1.0000 0.16091  0.14795  0.50256  Biso   1.000  C 
  C7       1.0000 0.89999  0.18211  0.52226  Biso   1.000  C 
  C8       1.0000 0.90202  0.91227  0.56602  Biso   1.000  C 
  C9       1.0000 0.55501  0.19354  0.92245  Biso   1.000  C 
  C10      1.0000 0.55631  0.17488  0.20526  Biso   1.000  C 
  C11      1.0000 0.56265  0.90571  0.16447  Biso   1.000  C 
  C12      1.0000 0.52213  0.94660  0.91861  Biso   1.000  C 
  C13      1.0000 0.41066  0.04700  0.64224  Biso   1.000  C 
  C14      1.0000 0.65744  0.09075  0.70399  Biso   1.000  C 
  C15      1.0000 0.69082  0.05303  0.44550  Biso   1.000  C 
  C16      1.0000 0.44184  0.03875  0.39388  Biso   1.000  C 
  C17      1.0000 0.69185  0.41914  0.07203  Biso   1.000  C 
  C18      1.0000 0.66955  0.67344  0.00654  Biso   1.000  C 
  C19      1.0000 0.41494  0.67847  0.03918  Biso   1.000  C 
  C20      1.0000 0.42006  0.41718  0.06129  Biso   1.000  C 
  C21      1.0000 0.03760  0.69783  0.42651  Biso   1.000  C 
  C22      1.0000 0.05698  0.66338  0.69936  Biso   1.000  C 
  C23      1.0000 0.05880  0.40955  0.64467  Biso   1.000  C 
  C24      1.0000 0.02898  0.43110  0.40649  Biso   1.000  C 
  C25      1.0000 0.86727  0.66456  0.21635  Biso   1.000  C 
  C26      1.0000 0.09560  0.65791  0.18202  Biso   1.000  C 
  C27      1.0000 0.16277  0.41340  0.91891  Biso   1.000  C 
  C28      1.0000 0.85618  0.45307  0.87783  Biso   1.000  C 
  C29      1.0000 0.25087  0.91868  0.61988  Biso   1.000  C 
  C30      1.0000 0.22164  0.16290  0.39117  Biso   1.000  C 
  C31      1.0000 0.85262  0.20994  0.63858  Biso   1.000  C 
  C32      1.0000 0.92101  0.97550  0.67864  Biso   1.000  C 
  C33      1.0000 0.43229  0.20919  0.96758  Biso   1.000  C 
  C34      1.0000 0.67207  0.21477  0.16606  Biso   1.000  C 
  C35      1.0000 0.66566  0.82922  0.15564  Biso   1.000  C 
  C36      1.0000 0.42828  0.85763  0.90190  Biso   1.000  C 
  C37      1.0000 0.67398  0.87652  0.22116  Biso   1.000  C 
  C38      1.0000 0.68205  0.14817  0.21470  Biso   1.000  C 
  C39      1.0000 0.42674  0.17478  0.89354  Biso   1.000  C 
  C40      1.0000 0.41962  0.91823  0.84674  Biso   1.000  C 
  C41      1.0000 0.91355  0.26071  0.62691  Biso   1.000  C 
  C42      1.0000 0.16863  0.22296  0.39472  Biso   1.000  C 
  C43      1.0000 0.18768  0.86870  0.63701  Biso   1.000  C 
  C44      1.0000 0.97053  0.91049  0.67617  Biso   1.000  C 
  C45      1.0000 0.20974  0.42277  0.98439  Biso   1.000  C 
  C46      1.0000 0.16787  0.65669  0.13654  Biso   1.000  C 
  C47      1.0000 0.83615  0.66078  0.13881  Biso   1.000  C 
  C48      1.0000 0.91710  0.44772  0.82303  Biso   1.000  C 
  C49      1.0000 0.38083  0.16403  0.68415  Biso   1.000  C 
  C50      1.0000 0.64772  0.97581  0.76192  Biso   1.000  C 
  C51      1.0000 0.66977  0.92902  0.42364  Biso   1.000  C 
  C52      1.0000 0.44696  0.91925  0.33903  Biso   1.000  C 
  C53      1.0000 0.67826  0.45789  0.94898  Biso   1.000  C 
  C54      1.0000 0.75859  0.71327  0.92308  Biso   1.000  C 
  C55      1.0000 0.36462  0.69288  0.15566  Biso   1.000  C 
  C56      1.0000 0.39370  0.44833  0.18317  Biso   1.000  C 
  C57      1.0000 0.92141  0.70616  0.48565  Biso   1.000  C 
  C58      1.0000 0.17204  0.67957  0.64485  Biso   1.000  C 
  C59      1.0000 0.13813  0.30861  0.66415  Biso   1.000  C 
  C60      1.0000 0.92969  0.35155  0.39276  Biso   1.000  C 
  C61      1.0000 0.14820  0.36248  0.72426  Biso   1.000  C 
  C62      1.0000 0.17920  0.61631  0.69449  Biso   1.000  C 
  C63      1.0000 0.91883  0.64857  0.42713  Biso   1.000  C 
  C64      1.0000 0.91714  0.41331  0.34227  Biso   1.000  C 
  C65      1.0000 0.42882  0.74346  0.14961  Biso   1.000  C 
  C66      1.0000 0.69864  0.76722  0.92581  Biso   1.000  C 
  C67      1.0000 0.62099  0.40225  0.96862  Biso   1.000  C 
  C68      1.0000 0.44844  0.38897  0.18147  Biso   1.000  C 
  C69      1.0000 0.70370  0.93620  0.49663  Biso   1.000  C 
  C70      1.0000 0.72000  0.98006  0.72075  Biso   1.000  C 
  C71      1.0000 0.34104  0.15459  0.61200  Biso   1.000  C 
  C72      1.0000 0.38172  0.92436  0.38774  Biso   1.000  C 
  C73      1.0000 0.94969  0.47318  0.14769  Biso   1.000  C 
  C74      1.0000 0.17208  0.46354  0.22533  Biso   1.000  C 
  C75      1.0000 0.22558  0.62546  0.90600  Biso   1.000  C 
  C76      1.0000 0.98103  0.60444  0.95869  Biso   1.000  C 
  C77      1.0000 0.15074  0.92688  0.43028  Biso   1.000  C 
  C78      1.0000 0.12236  0.11500  0.57722  Biso   1.000  C 
  C79      1.0000 0.91039  0.14707  0.44008  Biso   1.000  C 
  C80      1.0000 0.89068  0.89188  0.48320  Biso   1.000  C 
  C81      1.0000 0.63833  0.19969  0.90542  Biso   1.000  C 
  C82      1.0000 0.46691  0.17117  0.21375  Biso   1.000  C 
  C83      1.0000 0.49618  0.95991  0.14482  Biso   1.000  C 
  C84      1.0000 0.59182  0.98530  0.95004  Biso   1.000  C 
  C85      1.0000 0.44734  0.96825  0.63576  Biso   1.000  C 
  C86      1.0000 0.63408  0.16867  0.66652  Biso   1.000  C 
  C87      1.0000 0.68217  0.14506  0.44181  Biso   1.000  C 
  C88      1.0000 0.45725  0.12184  0.42134  Biso   1.000  C 
  C89      1.0000 0.72019  0.41575  0.15617  Biso   1.000  C 
  C90      1.0000 0.62241  0.62300  0.06108  Biso   1.000  C 
  C91      1.0000 0.42887  0.65311  0.95710  Biso   1.000  C 
  C92      1.0000 0.41270  0.41616  0.97137  Biso   1.000  C 
  C93      1.0000 0.12140  0.70506  0.40688  Biso   1.000  C 
  C94      1.0000 0.97313  0.67261  0.73059  Biso   1.000  C 
  C95      1.0000 0.99938  0.47172  0.61428  Biso   1.000  C 
  C96      1.0000 0.10487  0.46925  0.44290  Biso   1.000  C 
  H1       1.0000 0.85105  0.70509  0.26654  Biso   1.000  H 
  H2       1.0000 0.05663  0.71021  0.19628  Biso   1.000  H 
  H3       1.0000 0.12618  0.36441  0.89777  Biso   1.000  H 
  H4       1.0000 0.79761  0.41998  0.88222  Biso   1.000  H 
  H5       1.0000 0.29867  0.93600  0.65581  Biso   1.000  H 
  H6       1.0000 0.26514  0.14235  0.34731  Biso   1.000  H 
  H7       1.0000 0.82034  0.19833  0.69246  Biso   1.000  H 
  H8       1.0000 0.90687  0.02512  0.71899  Biso   1.000  H 
  H9       1.0000 0.38719  0.22963  0.00897  Biso   1.000  H 
  H10      1.0000 0.71599  0.24912  0.13145  Biso   1.000  H 
  H11      1.0000 0.70998  0.78908  0.13401  Biso   1.000  H 
  H12      1.0000 0.39479  0.80348  0.90799  Biso   1.000  H 
  H13      1.0000 0.71861  0.87868  0.26820  Biso   1.000  H 
  H14      1.0000 0.73331  0.11267  0.22823  Biso   1.000  H 
  H15      1.0000 0.37483  0.16170  0.85880  Biso   1.000  H 
  H16      1.0000 0.37410  0.92471  0.79985  Biso   1.000  H 
  H17      1.0000 0.93253  0.31086  0.66063  Biso   1.000  H 
  H18      1.0000 0.16278  0.27524  0.35998  Biso   1.000  H 
  H19      1.0000 0.17710  0.83792  0.69343  Biso   1.000  H 
  H20      1.0000 0.00911  0.89500  0.72328  Biso   1.000  H 
  H21      1.0000 0.23532  0.38059  0.02412  Biso   1.000  H 
  H22      1.0000 0.18802  0.70291  0.09572  Biso   1.000  H 
  H23      1.0000 0.79390  0.70031  0.10969  Biso   1.000  H 
  H24      1.0000 0.91633  0.40640  0.77524  Biso   1.000  H 
  H25      1.0000 0.38707  0.21580  0.72015  Biso   1.000  H 
  H26      1.0000 0.62204  0.92713  0.79829  Biso   1.000  H 
  H27      1.0000 0.63547  0.87781  0.39879  Biso   1.000  H 
  H28      1.0000 0.47278  0.87339  0.30068  Biso   1.000  H 
  H29      1.0000 0.68050  0.48933  0.89403  Biso   1.000  H 
  H30      1.0000 0.81652  0.72166  0.89250  Biso   1.000  H 
  H31      1.0000 0.32020  0.68518  0.19964  Biso   1.000  H 
  H32      1.0000 0.35869  0.46630  0.23600  Biso   1.000  H 
  H33      1.0000 0.88030  0.72352  0.53628  Biso   1.000  H 
  H34      1.0000 0.21891  0.70861  0.61556  Biso   1.000  H 
  H35      1.0000 0.17283  0.25744  0.65472  Biso   1.000  H 
  H36      1.0000 0.88874  0.30382  0.40611  Biso   1.000  H 
  H37      1.0000 0.18263  0.36058  0.77735  Biso   1.000  H 
  H38      1.0000 0.22963  0.58020  0.71776  Biso   1.000  H 
  H39      1.0000 0.86957  0.61643  0.40427  Biso   1.000  H 
  H40      1.0000 0.86319  0.42920  0.30918  Biso   1.000  H 
  H41      1.0000 0.45504  0.78475  0.19140  Biso   1.000  H 
  H42      1.0000 0.68600  0.81602  0.88788  Biso   1.000  H 
  H43      1.0000 0.57564  0.37494  0.93465  Biso   1.000  H 
  H44      1.0000 0.48785  0.36651  0.22761  Biso   1.000  H 
  H45      1.0000 0.72046  0.89614  0.54228  Biso   1.000  H 
  H46      1.0000 0.76641  0.93474  0.71346  Biso   1.000  H 
  H47      1.0000 0.29627  0.19265  0.58247  Biso   1.000  H 
  H48      1.0000 0.34249  0.87947  0.40433  Biso   1.000  H 
  H49      1.0000 0.93713  0.42825  0.19443  Biso   1.000  H 
  H50      1.0000 0.11797  0.44834  0.26138  Biso   1.000  H 
  H51      1.0000 0.21625  0.65953  0.96164  Biso   1.000  H 
  H52      1.0000 0.01287  0.56693  0.00239  Biso   1.000  H 
  H53      1.0000 0.09178  0.95444  0.42348  Biso   1.000  H 
  H54      1.0000 0.09178  0.05554  0.56997  Biso   1.000  H 
  H55      1.0000 0.90847  0.08123  0.44722  Biso   1.000  H 
  H56      1.0000 0.88083  0.94867  0.44965  Biso   1.000  H 
  H57      1.0000 0.64562  0.25480  0.87163  Biso   1.000  H 
  H58      1.0000 0.44371  0.22807  0.19653  Biso   1.000  H 
  H59      1.0000 0.45850  0.93026  0.10232  Biso   1.000  H 
  H60      1.0000 0.63270  0.94333  0.98276  Biso   1.000  H 
  H61      1.0000 0.46117  0.97819  0.19791  Biso   1.000  H 
  H62      1.0000 0.44699  0.12302  0.17669  Biso   1.000  H 
  H63      1.0000 0.67245  0.20364  0.95843  Biso   1.000  H 
  H64      1.0000 0.62576  0.01523  0.90425  Biso   1.000  H 
  H65      1.0000 0.85904  0.15726  0.40308  Biso   1.000  H 
  H66      1.0000 0.16428  0.11744  0.62723  Biso   1.000  H 
  H67      1.0000 0.20103  0.96802  0.40430  Biso   1.000  H 
  H68      1.0000 0.94391  0.85898  0.46272  Biso   1.000  H 
  H69      1.0000 0.28560  0.63256  0.87911  Biso   1.000  H 
  H70      1.0000 0.18737  0.42319  0.17305  Biso   1.000  H 
  H71      1.0000 0.92724  0.45193  0.08619  Biso   1.000  H 
  H72      1.0000 0.02212  0.64424  0.92741  Biso   1.000  H 
  H73      1.0000 0.51232  0.97271  0.62106  Biso   1.000  H 
  H74      1.0000 0.59838  0.14833  0.61548  Biso   1.000  H 
  H75      1.0000 0.65411  0.15917  0.38387  Biso   1.000  H 
  H76      1.0000 0.51441  0.14202  0.39647  Biso   1.000  H 
  H77      1.0000 0.75854  0.36206  0.16394  Biso   1.000  H 
  H78      1.0000 0.62408  0.56052  0.04600  Biso   1.000  H 
  H79      1.0000 0.40986  0.58707  0.95205  Biso   1.000  H 
  H80      1.0000 0.36026  0.45336  0.95447  Biso   1.000  H 
  H81      1.0000 0.15915  0.70192  0.46083  Biso   1.000  H 
  H82      1.0000 0.97636  0.67981  0.79528  Biso   1.000  H 
  H83      1.0000 0.02869  0.52703  0.60036  Biso   1.000  H 
  H84      1.0000 0.09164  0.52253  0.47688  Biso   1.000  H 
  H85      1.0000 0.98060  0.44941  0.55878  Biso   1.000  H 
  H86      1.0000 0.94468  0.72712  0.70748  Biso   1.000  H 
  H87      1.0000 0.13287  0.66107  0.36199  Biso   1.000  H 
  H88      1.0000 0.13432  0.42330  0.47983  Biso   1.000  H 
  H89      1.0000 0.38233  0.68290  0.91763  Biso   1.000  H 
  H90      1.0000 0.64681  0.62400  0.12050  Biso   1.000  H 
  H91      1.0000 0.74889  0.47470  0.16871  Biso   1.000  H 
  H92      1.0000 0.46357  0.43738  0.93602  Biso   1.000  H 
  H93      1.0000 0.64163  0.16889  0.48554  Biso   1.000  H 
  H94      1.0000 0.60192  0.20531  0.70736  Biso   1.000  H 
  H95      1.0000 0.45019  0.94129  0.69421  Biso   1.000  H 
  H96      1.0000 0.41138  0.16442  0.40194  Biso   1.000  H 
  H97      1.0000 0.01645  0.47055  0.15092  Biso   1.000  H 
  H98      1.0000 0.22736  0.45355  0.26635  Biso   1.000  H 
  H99      1.0000 0.18354  0.65145  0.86043  Biso   1.000  H 
  H100     1.0000 0.93698  0.63873  0.99243  Biso   1.000  H 
  H101     1.0000 0.15157  0.86818  0.39969  Biso   1.000  H 
  H102     1.0000 0.07262  0.15839  0.58995  Biso   1.000  H 
  H103     1.0000 0.97516  0.16026  0.42126  Biso   1.000  H 
  H104     1.0000 0.84377  0.84758  0.46823  Biso   1.000  H 
  H105     1.0000 0.65872  0.15372  0.86191  Biso   1.000  H 
  H106     1.0000 0.44840  0.14871  0.27032  Biso   1.000  H 
  H107     1.0000 0.51568  0.01676  0.11922  Biso   1.000  H 
  H108     1.0000 0.57808  0.02777  0.99955  Biso   1.000  H 
  H109     1.0000 0.42450  0.92485  0.59593  Biso   1.000  H 
  H110     1.0000 0.68795  0.19900  0.64411  Biso   1.000  H 
  H111     1.0000 0.74047  0.17195  0.44760  Biso   1.000  H 
  H112     1.0000 0.46111  0.11857  0.48542  Biso   1.000  H 
  H113     1.0000 0.66588  0.40752  0.19366  Biso   1.000  H 
  H114     1.0000 0.56208  0.64148  0.05834  Biso   1.000  H 
  H115     1.0000 0.48628  0.66615  0.93391  Biso   1.000  H 
  H116     1.0000 0.40674  0.35475  0.94925  Biso   1.000  H 
  H117     1.0000 0.14052  0.76413  0.38044  Biso   1.000  H 
  H118     1.0000 0.93678  0.61811  0.72185  Biso   1.000  H 
  H119     1.0000 0.94845  0.48114  0.65294  Biso   1.000  H 
  H120     1.0000 0.13952  0.48611  0.39257  Biso   1.000  H 
  N1       1.0000 0.91361  0.59736  0.22643  Biso   1.000  N 
  N2       1.0000 0.09497  0.58839  0.22305  Biso   1.000  N 
  N3       1.0000 0.15912  0.48776  0.88500  Biso   1.000  N 
  N4       1.0000 0.86914  0.51773  0.92618  Biso   1.000  N 
  N5       1.0000 0.24153  0.94847  0.54511  Biso   1.000  N 
  N6       1.0000 0.21562  0.11648  0.45655  Biso   1.000  N 
  N7       1.0000 0.84659  0.15717  0.57584  Biso   1.000  N 
  N8       1.0000 0.87443  0.97315  0.60738  Biso   1.000  N 
  N9       1.0000 0.51300  0.22421  0.98533  Biso   1.000  N 
  N10      1.0000 0.59429  0.23040  0.15999  Biso   1.000  N 
  N11      1.0000 0.59429  0.84542  0.12108  Biso   1.000  N 
  N12      1.0000 0.49599  0.87573  0.94605  Biso   1.000  N 
  N13      1.0000 0.60948  0.92530  0.22854  Biso   1.000  N 
  N14      1.0000 0.60882  0.12362  0.24204  Biso   1.000  N 
  N15      1.0000 0.50442  0.16370  0.86498  Biso   1.000  N 
  N16      1.0000 0.48044  0.97649  0.85817  Biso   1.000  N 
  N17      1.0000 0.94293  0.24409  0.55002  Biso   1.000  N 
  N18      1.0000 0.12860  0.21272  0.46980  Biso   1.000  N 
  N19      1.0000 0.14207  0.86731  0.56914  Biso   1.000  N 
  N20      1.0000 0.96223  0.87022  0.60470  Biso   1.000  N 
  N21      1.0000 0.24168  0.49825  0.98692  Biso   1.000  N 
  N22      1.0000 0.20248  0.58536  0.14629  Biso   1.000  N 
  N23      1.0000 0.85710  0.58493  0.11009  Biso   1.000  N 
  N24      1.0000 0.97117  0.50879  0.83722  Biso   1.000  N 
  N25      1.0000 0.42324  0.09786  0.70460  Biso   1.000  N 
  N26      1.0000 0.61261  0.04761  0.75533  Biso   1.000  N 
  N27      1.0000 0.65854  0.00707  0.38962  Biso   1.000  N 
  N28      1.0000 0.48731  0.99562  0.34332  Biso   1.000  N 
  N29      1.0000 0.72587  0.46627  0.01512  Biso   1.000  N 
  N30      1.0000 0.74313  0.65593  0.97783  Biso   1.000  N 
  N31      1.0000 0.35798  0.65480  0.08760  Biso   1.000  N 
  N32      1.0000 0.37530  0.46703  0.10708  Biso   1.000  N 
  N33      1.0000 0.00077  0.73684  0.48532  Biso   1.000  N 
  N34      1.0000 0.09435  0.70919  0.64670  Biso   1.000  N 
  N35      1.0000 0.07984  0.34005  0.61423  Biso   1.000  N 
  N36      1.0000 0.00355  0.35881  0.42873  Biso   1.000  N 
  N37      1.0000 0.09747  0.42509  0.71342  Biso   1.000  N 
  N38      1.0000 0.10515  0.60653  0.73276  Biso   1.000  N 
  N39      1.0000 0.99118  0.64397  0.39022  Biso   1.000  N 
  N40      1.0000 0.98192  0.46625  0.34878  Biso   1.000  N 
  N41      1.0000 0.46211  0.73408  0.07663  Biso   1.000  N 
  N42      1.0000 0.63747  0.73884  0.97111  Biso   1.000  N 
  N43      1.0000 0.62990  0.37672  0.04319  Biso   1.000  N 
  N44      1.0000 0.46083  0.36513  0.10630  Biso   1.000  N 
  N45      1.0000 0.71793  0.01366  0.51039  Biso   1.000  N 
  N46      1.0000 0.72427  0.05030  0.68204  Biso   1.000  N 
  N47      1.0000 0.36476  0.08123  0.58326  Biso   1.000  N 
  N48      1.0000 0.37351  0.00189  0.41714  Biso   1.000  N 
  Zn1      1.0000 0.00093  0.56740  0.29388  Biso   1.000  Zn
  Zn2      1.0000 0.08976  0.51088  0.79580  Biso   1.000  Zn
  Zn3      1.0000 0.30405  0.03117  0.49524  Biso   1.000  Zn
  Zn4      1.0000 0.79093  0.06081  0.59041  Biso   1.000  Zn
  Zn5      1.0000 0.54496  0.29101  0.07144  Biso   1.000  Zn
  Zn6      1.0000 0.54079  0.79767  0.02015  Biso   1.000  Zn
  Zn7      1.0000 0.59569  0.02188  0.29207  Biso   1.000  Zn
  Zn8      1.0000 0.50173  0.07489  0.79252  Biso   1.000  Zn
  Zn9      1.0000 0.04235  0.28827  0.51260  Biso   1.000  Zn
  Zn10     1.0000 0.05549  0.79082  0.57102  Biso   1.000  Zn
  Zn11     1.0000 0.29733  0.55095  0.08184  Biso   1.000  Zn
  Zn12     1.0000 0.80414  0.56118  0.01199  Biso   1.000  Zn
