data_image0
_cell_length_a       16.9932
_cell_length_b       16.9932
_cell_length_c       16.9932
_cell_angle_alpha    90
_cell_angle_beta     90
_cell_angle_gamma    90

_symmetry_space_group_name_H-M    "P 1"
_symmetry_int_tables_number       1

loop_
  _symmetry_equiv_pos_as_xyz
  'x, y, z'

loop_
  _atom_site_label
  _atom_site_occupancy
  _atom_site_fract_x
  _atom_site_fract_y
  _atom_site_fract_z
  _atom_site_thermal_displace_type
  _atom_site_B_iso_or_equiv
  _atom_site_type_symbol
  C1       1.0000 0.92380  0.56127  0.16857  Biso   1.000  C 
  C2       1.0000 0.16689  0.54667  0.15325  Biso   1.000  C 
  C3       1.0000 0.16075  0.55024  0.91455  Biso   1.000  C 
  C4       1.0000 0.91765  0.53265  0.91697  Biso   1.000  C 
  C5       1.0000 0.16108  0.91445  0.55009  Biso   1.000  C 
  C6       1.0000 0.16661  0.14145  0.52813  Biso   1.000  C 
  C7       1.0000 0.93718  0.15018  0.53673  Biso   1.000  C 
  C8       1.0000 0.91327  0.90124  0.54284  Biso   1.000  C 
  C9       1.0000 0.54288  0.17201  0.93611  Biso   1.000  C 
  C10      1.0000 0.53662  0.18782  0.18205  Biso   1.000  C 
  C11      1.0000 0.54914  0.93084  0.17900  Biso   1.000  C 
  C12      1.0000 0.54090  0.93889  0.93120  Biso   1.000  C 
  C13      1.0000 0.42391  0.05033  0.67448  Biso   1.000  C 
  C14      1.0000 0.68070  0.05137  0.68688  Biso   1.000  C 
  C15      1.0000 0.68500  0.00614  0.42186  Biso   1.000  C 
  C16      1.0000 0.41845  0.03645  0.42589  Biso   1.000  C 
  C17      1.0000 0.66034  0.43264  0.05866  Biso   1.000  C 
  C18      1.0000 0.66639  0.69252  0.03944  Biso   1.000  C 
  C19      1.0000 0.41282  0.69274  0.05056  Biso   1.000  C 
  C20      1.0000 0.42697  0.44375  0.03538  Biso   1.000  C 
  C21      1.0000 0.02125  0.66170  0.40168  Biso   1.000  C 
  C22      1.0000 0.03845  0.66106  0.66599  Biso   1.000  C 
  C23      1.0000 0.05613  0.41473  0.65136  Biso   1.000  C 
  C24      1.0000 0.05273  0.39923  0.39767  Biso   1.000  C 
  C25      1.0000 0.91309  0.44440  0.22693  Biso   1.000  C 
  C26      1.0000 0.17703  0.65381  0.22324  Biso   1.000  C 
  C27      1.0000 0.17871  0.43747  0.84658  Biso   1.000  C 
  C28      1.0000 0.90900  0.63217  0.83510  Biso   1.000  C 
  C29      1.0000 0.24108  0.89300  0.44523  Biso   1.000  C 
  C30      1.0000 0.22626  0.16499  0.64269  Biso   1.000  C 
  C31      1.0000 0.83732  0.18178  0.46080  Biso   1.000  C 
  C32      1.0000 0.84646  0.88245  0.65414  Biso   1.000  C 
  C33      1.0000 0.43641  0.24090  0.92125  Biso   1.000  C 
  C34      1.0000 0.65133  0.24504  0.19037  Biso   1.000  C 
  C35      1.0000 0.43593  0.86930  0.19700  Biso   1.000  C 
  C36      1.0000 0.65276  0.87504  0.93899  Biso   1.000  C 
  C37      1.0000 0.43953  0.92821  0.25157  Biso   1.000  C 
  C38      1.0000 0.65070  0.18575  0.24558  Biso   1.000  C 
  C39      1.0000 0.44113  0.18655  0.86496  Biso   1.000  C 
  C40      1.0000 0.65132  0.92211  0.87044  Biso   1.000  C 
  C41      1.0000 0.89127  0.23945  0.45282  Biso   1.000  C 
  C42      1.0000 0.17321  0.22360  0.62835  Biso   1.000  C 
  C43      1.0000 0.17484  0.84679  0.43924  Biso   1.000  C 
  C44      1.0000 0.90635  0.82604  0.64738  Biso   1.000  C 
  C45      1.0000 0.24133  0.44670  0.89895  Biso   1.000  C 
  C46      1.0000 0.22278  0.66331  0.15564  Biso   1.000  C 
  C47      1.0000 0.85298  0.44981  0.17043  Biso   1.000  C 
  C48      1.0000 0.85099  0.63762  0.89219  Biso   1.000  C 
  C49      1.0000 0.43058  0.94097  0.74164  Biso   1.000  C 
  C50      1.0000 0.69114  0.16791  0.74283  Biso   1.000  C 
  C51      1.0000 0.60689  0.10412  0.44726  Biso   1.000  C 
  C52      1.0000 0.40175  0.14927  0.36749  Biso   1.000  C 
  C53      1.0000 0.71308  0.43453  0.93958  Biso   1.000  C 
  C54      1.0000 0.73576  0.68620  0.14776  Biso   1.000  C 
  C55      1.0000 0.35708  0.70112  0.93554  Biso   1.000  C 
  C56      1.0000 0.36036  0.45025  0.14655  Biso   1.000  C 
  C57      1.0000 0.12828  0.65505  0.47471  Biso   1.000  C 
  C58      1.0000 0.13872  0.73516  0.69617  Biso   1.000  C 
  C59      1.0000 0.94951  0.34147  0.65861  Biso   1.000  C 
  C60      1.0000 0.16233  0.33026  0.38473  Biso   1.000  C 
  C61      1.0000 0.94906  0.39064  0.72405  Biso   1.000  C 
  C62      1.0000 0.14211  0.66866  0.73867  Biso   1.000  C 
  C63      1.0000 0.13418  0.59982  0.41454  Biso   1.000  C 
  C64      1.0000 0.15923  0.38513  0.32492  Biso   1.000  C 
  C65      1.0000 0.41308  0.76133  0.94069  Biso   1.000  C 
  C66      1.0000 0.67650  0.74137  0.16076  Biso   1.000  C 
  C67      1.0000 0.65148  0.37779  0.94296  Biso   1.000  C 
  C68      1.0000 0.41531  0.39002  0.15334  Biso   1.000  C 
  C69      1.0000 0.66054  0.10005  0.51116  Biso   1.000  C 
  C70      1.0000 0.75039  0.15859  0.69207  Biso   1.000  C 
  C71      1.0000 0.37497  0.92909  0.68451  Biso   1.000  C 
  C72      1.0000 0.34976  0.14541  0.42998  Biso   1.000  C 
  C73      1.0000 0.95548  0.64063  0.13977  Biso   1.000  C 
  C74      1.0000 0.14108  0.46601  0.12546  Biso   1.000  C 
  C75      1.0000 0.11852  0.61894  0.94832  Biso   1.000  C 
  C76      1.0000 0.95143  0.46028  0.95112  Biso   1.000  C 
  C77      1.0000 0.11733  0.94782  0.62154  Biso   1.000  C 
  C78      1.0000 0.14550  0.10728  0.45088  Biso   1.000  C 
  C79      1.0000 0.98252  0.11196  0.60254  Biso   1.000  C 
  C80      1.0000 0.93073  0.92813  0.46032  Biso   1.000  C 
  C81      1.0000 0.61778  0.14046  0.96831  Biso   1.000  C 
  C82      1.0000 0.45440  0.16268  0.15809  Biso   1.000  C 
  C83      1.0000 0.63151  0.96533  0.15845  Biso   1.000  C 
  C84      1.0000 0.45816  0.97191  0.94988  Biso   1.000  C 
  C85      1.0000 0.45065  0.12358  0.63274  Biso   1.000  C 
  C86      1.0000 0.64649  0.97214  0.66019  Biso   1.000  C 
  C87      1.0000 0.72819  0.94118  0.38250  Biso   1.000  C 
  C88      1.0000 0.45685  0.95686  0.45080  Biso   1.000  C 
  C89      1.0000 0.63269  0.45828  0.13808  Biso   1.000  C 
  C90      1.0000 0.63337  0.67055  0.95731  Biso   1.000  C 
  C91      1.0000 0.44042  0.66312  0.12513  Biso   1.000  C 
  C92      1.0000 0.46140  0.46405  0.95479  Biso   1.000  C 
  C93      1.0000 0.94542  0.69885  0.37239  Biso   1.000  C 
  C94      1.0000 0.96751  0.62728  0.62575  Biso   1.000  C 
  C95      1.0000 0.12564  0.45265  0.61037  Biso   1.000  C 
  C96      1.0000 0.98560  0.43796  0.43705  Biso   1.000  C 
  H1       1.0000 0.93214  0.39277  0.26337  Biso   1.000  H 
  H2       1.0000 0.16488  0.69971  0.26587  Biso   1.000  H 
  H3       1.0000 0.16734  0.39291  0.79941  Biso   1.000  H 
  H4       1.0000 0.92395  0.67040  0.78382  Biso   1.000  H 
  H5       1.0000 0.28929  0.90653  0.40426  Biso   1.000  H 
  H6       1.0000 0.25569  0.14553  0.69715  Biso   1.000  H 
  H7       1.0000 0.77696  0.16808  0.43595  Biso   1.000  H 
  H8       1.0000 0.79488  0.88079  0.69577  Biso   1.000  H 
  H9       1.0000 0.39364  0.28274  0.93996  Biso   1.000  H 
  H10      1.0000 0.69988  0.28605  0.17509  Biso   1.000  H 
  H11      1.0000 0.39209  0.82301  0.18187  Biso   1.000  H 
  H12      1.0000 0.70100  0.84057  0.96366  Biso   1.000  H 
  H13      1.0000 0.39273  0.94563  0.29193  Biso   1.000  H 
  H14      1.0000 0.69929  0.17043  0.28623  Biso   1.000  H 
  H15      1.0000 0.40192  0.18103  0.81400  Biso   1.000  H 
  H16      1.0000 0.70099  0.93624  0.83256  Biso   1.000  H 
  H17      1.0000 0.89670  0.29371  0.41820  Biso   1.000  H 
  H18      1.0000 0.16039  0.27508  0.66789  Biso   1.000  H 
  H19      1.0000 0.15951  0.80006  0.39899  Biso   1.000  H 
  H20      1.0000 0.91319  0.77471  0.68210  Biso   1.000  H 
  H21      1.0000 0.29075  0.40817  0.91519  Biso   1.000  H 
  H22      1.0000 0.26524  0.70974  0.13987  Biso   1.000  H 
  H23      1.0000 0.79830  0.41427  0.16594  Biso   1.000  H 
  H24      1.0000 0.81008  0.68788  0.89934  Biso   1.000  H 
  H25      1.0000 0.45569  0.90283  0.78567  Biso   1.000  H 
  H26      1.0000 0.67985  0.22186  0.78079  Biso   1.000  H 
  H27      1.0000 0.56715  0.15460  0.43784  Biso   1.000  H 
  H28      1.0000 0.40796  0.19737  0.32187  Biso   1.000  H 
  H29      1.0000 0.75494  0.46338  0.90202  Biso   1.000  H 
  H30      1.0000 0.77899  0.66455  0.19073  Biso   1.000  H 
  H31      1.0000 0.31893  0.68441  0.88603  Biso   1.000  H 
  H32      1.0000 0.31784  0.46658  0.19346  Biso   1.000  H 
  H33      1.0000 0.16525  0.66546  0.52347  Biso   1.000  H 
  H34      1.0000 0.17580  0.78931  0.69476  Biso   1.000  H 
  H35      1.0000 0.90309  0.30138  0.63776  Biso   1.000  H 
  H36      1.0000 0.20698  0.29168  0.40375  Biso   1.000  H 
  H37      1.0000 0.90788  0.39420  0.77676  Biso   1.000  H 
  H38      1.0000 0.18267  0.64910  0.78887  Biso   1.000  H 
  H39      1.0000 0.16939  0.54520  0.39931  Biso   1.000  H 
  H40      1.0000 0.19415  0.40114  0.27245  Biso   1.000  H 
  H41      1.0000 0.43312  0.80329  0.89758  Biso   1.000  H 
  H42      1.0000 0.66853  0.78784  0.20858  Biso   1.000  H 
  H43      1.0000 0.63521  0.33593  0.89647  Biso   1.000  H 
  H44      1.0000 0.42546  0.34287  0.19489  Biso   1.000  H 
  H45      1.0000 0.65829  0.13971  0.55947  Biso   1.000  H 
  H46      1.0000 0.79768  0.20219  0.68593  Biso   1.000  H 
  H47      1.0000 0.33297  0.87944  0.68107  Biso   1.000  H 
  H48      1.0000 0.30846  0.18780  0.45708  Biso   1.000  H 
  H49      1.0000 0.96308  0.67925  0.19141  Biso   1.000  H 
  H50      1.0000 0.08428  0.45786  0.09681  Biso   1.000  H 
  H51      1.0000 0.10362  0.61418  0.00973  Biso   1.000  H 
  H52      1.0000 0.93868  0.45821  0.01813  Biso   1.000  H 
  H53      1.0000 0.13146  0.01248  0.62701  Biso   1.000  H 
  H54      1.0000 0.09344  0.06412  0.45734  Biso   1.000  H 
  H55      1.0000 0.01644  0.05852  0.58024  Biso   1.000  H 
  H56      1.0000 0.89578  0.98449  0.44918  Biso   1.000  H 
  H57      1.0000 0.63432  0.08264  0.94007  Biso   1.000  H 
  H58      1.0000 0.41054  0.19998  0.19437  Biso   1.000  H 
  H59      1.0000 0.67707  0.91853  0.14003  Biso   1.000  H 
  H60      1.0000 0.42598  0.93665  0.99262  Biso   1.000  H 
  H61      1.0000 0.63424  0.01334  0.11222  Biso   1.000  H 
  H62      1.0000 0.44217  0.16574  0.09811  Biso   1.000  H 
  H63      1.0000 0.66418  0.18502  0.96353  Biso   1.000  H 
  H64      1.0000 0.46037  0.03331  0.97132  Biso   1.000  H 
  H65      1.0000 0.02044  0.15257  0.63473  Biso   1.000  H 
  H66      1.0000 0.12255  0.15394  0.41153  Biso   1.000  H 
  H67      1.0000 0.05062  0.93333  0.61218  Biso   1.000  H 
  H68      1.0000 0.99218  0.93731  0.44322  Biso   1.000  H 
  H69      1.0000 0.15593  0.67292  0.94877  Biso   1.000  H 
  H70      1.0000 0.18108  0.44202  0.07998  Biso   1.000  H 
  H71      1.0000 0.01223  0.64226  0.10294  Biso   1.000  H 
  H72      1.0000 0.92159  0.40554  0.92948  Biso   1.000  H 
  H73      1.0000 0.48057  0.16225  0.67241  Biso   1.000  H 
  H74      1.0000 0.62241  0.93858  0.70996  Biso   1.000  H 
  H75      1.0000 0.75837  0.90336  0.42243  Biso   1.000  H 
  H76      1.0000 0.47417  0.91847  0.40057  Biso   1.000  H 
  H77      1.0000 0.63204  0.52248  0.13371  Biso   1.000  H 
  H78      1.0000 0.60774  0.60666  0.95495  Biso   1.000  H 
  H79      1.0000 0.39573  0.65097  0.16878  Biso   1.000  H 
  H80      1.0000 0.42341  0.50232  0.92166  Biso   1.000  H 
  H81      1.0000 0.90364  0.65620  0.35394  Biso   1.000  H 
  H82      1.0000 0.95039  0.64833  0.56968  Biso   1.000  H 
  H83      1.0000 0.14089  0.50683  0.64784  Biso   1.000  H 
  H84      1.0000 0.92801  0.44702  0.39946  Biso   1.000  H 
  H85      1.0000 0.17531  0.41428  0.59607  Biso   1.000  H 
  H86      1.0000 0.97643  0.56106  0.62491  Biso   1.000  H 
  H87      1.0000 0.91847  0.73831  0.42088  Biso   1.000  H 
  H88      1.0000 0.95884  0.40718  0.49032  Biso   1.000  H 
  H89      1.0000 0.47512  0.61021  0.12302  Biso   1.000  H 
  H90      1.0000 0.58726  0.71329  0.93422  Biso   1.000  H 
  H91      1.0000 0.57256  0.43317  0.15015  Biso   1.000  H 
  H92      1.0000 0.51833  0.49569  0.95511  Biso   1.000  H 
  H93      1.0000 0.68131  0.90757  0.34741  Biso   1.000  H 
  H94      1.0000 0.60004  0.98315  0.61659  Biso   1.000  H 
  H95      1.0000 0.49700  0.10480  0.59226  Biso   1.000  H 
  H96      1.0000 0.50752  0.97385  0.49486  Biso   1.000  H 
  H97      1.0000 0.90708  0.66565  0.10201  Biso   1.000  H 
  H98      1.0000 0.13944  0.43010  0.17736  Biso   1.000  H 
  H99      1.0000 0.06476  0.63618  0.90993  Biso   1.000  H 
  H100     1.0000 0.01451  0.45732  0.93724  Biso   1.000  H 
  H101     1.0000 0.13169  0.91966  0.67759  Biso   1.000  H 
  H102     1.0000 0.20153  0.07969  0.42385  Biso   1.000  H 
  H103     1.0000 0.93769  0.08918  0.64593  Biso   1.000  H 
  H104     1.0000 0.90326  0.88803  0.41693  Biso   1.000  H 
  H105     1.0000 0.60962  0.12732  0.03003  Biso   1.000  H 
  H106     1.0000 0.45455  0.09938  0.17822  Biso   1.000  H 
  H107     1.0000 0.66100  0.99767  0.20910  Biso   1.000  H 
  H108     1.0000 0.43129  0.97343  0.89355  Biso   1.000  H 
  H109     1.0000 0.40580  0.15969  0.59931  Biso   1.000  H 
  H110     1.0000 0.69455  0.93821  0.63462  Biso   1.000  H 
  H111     1.0000 0.76935  0.96314  0.33889  Biso   1.000  H 
  H112     1.0000 0.41738  0.91917  0.48285  Biso   1.000  H 
  H113     1.0000 0.66736  0.43408  0.18988  Biso   1.000  H 
  H114     1.0000 0.68554  0.67717  0.91700  Biso   1.000  H 
  H115     1.0000 0.47565  0.71160  0.15320  Biso   1.000  H 
  H116     1.0000 0.47385  0.40900  0.92070  Biso   1.000  H 
  H117     1.0000 0.96171  0.74072  0.32679  Biso   1.000  H 
  H118     1.0000 0.91738  0.62980  0.66760  Biso   1.000  H 
  H119     1.0000 0.10959  0.47946  0.55247  Biso   1.000  H 
  H120     1.0000 0.00736  0.49725  0.45269  Biso   1.000  H 
  N1       1.0000 0.95869  0.51460  0.22362  Biso   1.000  N 
  N2       1.0000 0.14154  0.58099  0.22271  Biso   1.000  N 
  N3       1.0000 0.13213  0.50361  0.85291  Biso   1.000  N 
  N4       1.0000 0.95413  0.56645  0.85157  Biso   1.000  N 
  N5       1.0000 0.23123  0.93794  0.51554  Biso   1.000  N 
  N6       1.0000 0.22600  0.11649  0.57617  Biso   1.000  N 
  N7       1.0000 0.86394  0.12593  0.51534  Biso   1.000  N 
  N8       1.0000 0.85513  0.93502  0.58854  Biso   1.000  N 
  N9       1.0000 0.50193  0.22770  0.97166  Biso   1.000  N 
  N10      1.0000 0.57982  0.24516  0.15082  Biso   1.000  N 
  N11      1.0000 0.50504  0.87105  0.14884  Biso   1.000  N 
  N12      1.0000 0.57860  0.88110  0.97499  Biso   1.000  N 
  N13      1.0000 0.51268  0.96373  0.24237  Biso   1.000  N 
  N14      1.0000 0.57417  0.15097  0.24420  Biso   1.000  N 
  N15      1.0000 0.50928  0.14021  0.86879  Biso   1.000  N 
  N16      1.0000 0.58237  0.96359  0.86601  Biso   1.000  N 
  N17      1.0000 0.95554  0.22098  0.50315  Biso   1.000  N 
  N18      1.0000 0.13397  0.20967  0.55900  Biso   1.000  N 
  N19      1.0000 0.12984  0.85473  0.50648  Biso   1.000  N 
  N20      1.0000 0.94946  0.83883  0.57874  Biso   1.000  N 
  N21      1.0000 0.22742  0.51518  0.94352  Biso   1.000  N 
  N22      1.0000 0.21763  0.59097  0.11386  Biso   1.000  N 
  N23      1.0000 0.85523  0.52614  0.13680  Biso   1.000  N 
  N24      1.0000 0.85578  0.57517  0.94265  Biso   1.000  N 
  N25      1.0000 0.46241  0.01343  0.73417  Biso   1.000  N 
  N26      1.0000 0.64006  0.10202  0.73558  Biso   1.000  N 
  N27      1.0000 0.62581  0.04665  0.39255  Biso   1.000  N 
  N28      1.0000 0.44672  0.08322  0.36864  Biso   1.000  N 
  N29      1.0000 0.71701  0.46784  0.01389  Biso   1.000  N 
  N30      1.0000 0.72849  0.65204  0.07404  Biso   1.000  N 
  N31      1.0000 0.35777  0.65698  0.00413  Biso   1.000  N 
  N32      1.0000 0.36496  0.48266  0.07137  Biso   1.000  N 
  N33      1.0000 0.05904  0.69596  0.46411  Biso   1.000  N 
  N34      1.0000 0.07390  0.72974  0.64468  Biso   1.000  N 
  N35      1.0000 0.01697  0.35515  0.61412  Biso   1.000  N 
  N36      1.0000 0.09505  0.34010  0.43138  Biso   1.000  N 
  N37      1.0000 0.01873  0.43955  0.71752  Biso   1.000  N 
  N38      1.0000 0.07787  0.62176  0.72012  Biso   1.000  N 
  N39      1.0000 0.06446  0.60183  0.37043  Biso   1.000  N 
  N40      1.0000 0.09088  0.43064  0.33459  Biso   1.000  N 
  N41      1.0000 0.44787  0.75315  0.01347  Biso   1.000  N 
  N42      1.0000 0.63140  0.74255  0.08927  Biso   1.000  N 
  N43      1.0000 0.62127  0.37701  0.01822  Biso   1.000  N 
  N44      1.0000 0.45624  0.38794  0.08155  Biso   1.000  N 
  N45      1.0000 0.71105  0.03825  0.49324  Biso   1.000  N 
  N46      1.0000 0.74795  0.08410  0.66059  Biso   1.000  N 
  N47      1.0000 0.37132  0.99849  0.63986  Biso   1.000  N 
  N48      1.0000 0.35973  0.07526  0.46529  Biso   1.000  N 
  Zn1      1.0000 0.05543  0.52707  0.28046  Biso   1.000  Zn
  Zn2      1.0000 0.04090  0.53075  0.78599  Biso   1.000  Zn
  Zn3      1.0000 0.29884  0.02530  0.54959  Biso   1.000  Zn
  Zn4      1.0000 0.80401  0.03796  0.56651  Biso   1.000  Zn
  Zn5      1.0000 0.53667  0.30293  0.05588  Biso   1.000  Zn
  Zn6      1.0000 0.54458  0.81284  0.05692  Biso   1.000  Zn
  Zn7      1.0000 0.54311  0.05122  0.30616  Biso   1.000  Zn
  Zn8      1.0000 0.55304  0.05463  0.79983  Biso   1.000  Zn
  Zn9      1.0000 0.05028  0.28369  0.52637  Biso   1.000  Zn
  Zn10     1.0000 0.04978  0.78409  0.54480  Biso   1.000  Zn
  Zn11     1.0000 0.28939  0.56080  0.02587  Biso   1.000  Zn
  Zn12     1.0000 0.78952  0.55913  0.04453  Biso   1.000  Zn
