data_image0
_cell_length_a       16.9932
_cell_length_b       16.9932
_cell_length_c       16.9932
_cell_angle_alpha    90
_cell_angle_beta     90
_cell_angle_gamma    90

_symmetry_space_group_name_H-M    "P 1"
_symmetry_int_tables_number       1

loop_
  _symmetry_equiv_pos_as_xyz
  'x, y, z'

loop_
  _atom_site_label
  _atom_site_occupancy
  _atom_site_fract_x
  _atom_site_fract_y
  _atom_site_fract_z
  _atom_site_thermal_displace_type
  _atom_site_B_iso_or_equiv
  _atom_site_type_symbol
  C1       1.0000 0.92597  0.56061  0.16320  Biso   1.000  C 
  C2       1.0000 0.15605  0.54760  0.17272  Biso   1.000  C 
  C3       1.0000 0.18060  0.55201  0.93563  Biso   1.000  C 
  C4       1.0000 0.93433  0.53670  0.91041  Biso   1.000  C 
  C5       1.0000 0.16378  0.91419  0.51479  Biso   1.000  C 
  C6       1.0000 0.22206  0.19928  0.54849  Biso   1.000  C 
  C7       1.0000 0.92969  0.18078  0.55393  Biso   1.000  C 
  C8       1.0000 0.89726  0.92188  0.56013  Biso   1.000  C 
  C9       1.0000 0.53737  0.15113  0.92546  Biso   1.000  C 
  C10      1.0000 0.53229  0.15665  0.16902  Biso   1.000  C 
  C11      1.0000 0.54449  0.90156  0.16143  Biso   1.000  C 
  C12      1.0000 0.52062  0.89280  0.91289  Biso   1.000  C 
  C13      1.0000 0.42774  0.04825  0.65426  Biso   1.000  C 
  C14      1.0000 0.67504  0.04414  0.68912  Biso   1.000  C 
  C15      1.0000 0.67988  0.01877  0.42503  Biso   1.000  C 
  C16      1.0000 0.40375  0.03704  0.38229  Biso   1.000  C 
  C17      1.0000 0.67845  0.39582  0.01213  Biso   1.000  C 
  C18      1.0000 0.67756  0.65971  0.02287  Biso   1.000  C 
  C19      1.0000 0.40730  0.67555  0.03008  Biso   1.000  C 
  C20      1.0000 0.40078  0.39004  0.04961  Biso   1.000  C 
  C21      1.0000 0.04420  0.70203  0.41954  Biso   1.000  C 
  C22      1.0000 0.05847  0.66841  0.66640  Biso   1.000  C 
  C23      1.0000 0.07780  0.43250  0.65191  Biso   1.000  C 
  C24      1.0000 0.04034  0.45127  0.42217  Biso   1.000  C 
  C25      1.0000 0.89736  0.46255  0.24421  Biso   1.000  C 
  C26      1.0000 0.15510  0.66914  0.21049  Biso   1.000  C 
  C27      1.0000 0.19030  0.44609  0.86415  Biso   1.000  C 
  C28      1.0000 0.85884  0.63784  0.88907  Biso   1.000  C 
  C29      1.0000 0.15489  0.00433  0.61060  Biso   1.000  C 
  C30      1.0000 0.20315  0.14310  0.43445  Biso   1.000  C 
  C31      1.0000 0.84643  0.19133  0.45889  Biso   1.000  C 
  C32      1.0000 0.84274  0.92667  0.67564  Biso   1.000  C 
  C33      1.0000 0.43696  0.22967  0.90455  Biso   1.000  C 
  C34      1.0000 0.62713  0.23827  0.19385  Biso   1.000  C 
  C35      1.0000 0.65255  0.92506  0.09353  Biso   1.000  C 
  C36      1.0000 0.62783  0.81580  0.89554  Biso   1.000  C 
  C37      1.0000 0.65170  0.97445  0.15949  Biso   1.000  C 
  C38      1.0000 0.62744  0.18093  0.25389  Biso   1.000  C 
  C39      1.0000 0.43306  0.16940  0.85178  Biso   1.000  C 
  C40      1.0000 0.62940  0.87922  0.84532  Biso   1.000  C 
  C41      1.0000 0.90298  0.24936  0.44950  Biso   1.000  C 
  C42      1.0000 0.13543  0.18528  0.45346  Biso   1.000  C 
  C43      1.0000 0.08946  0.95340  0.61090  Biso   1.000  C 
  C44      1.0000 0.89002  0.85746  0.67309  Biso   1.000  C 
  C45      1.0000 0.23628  0.43371  0.92833  Biso   1.000  C 
  C46      1.0000 0.22608  0.65918  0.17324  Biso   1.000  C 
  C47      1.0000 0.85097  0.45605  0.17809  Biso   1.000  C 
  C48      1.0000 0.92014  0.64197  0.83593  Biso   1.000  C 
  C49      1.0000 0.38780  0.96232  0.74071  Biso   1.000  C 
  C50      1.0000 0.66321  0.15202  0.76186  Biso   1.000  C 
  C51      1.0000 0.60533  0.12191  0.42700  Biso   1.000  C 
  C52      1.0000 0.46149  0.92563  0.40170  Biso   1.000  C 
  C53      1.0000 0.66119  0.47543  0.10783  Biso   1.000  C 
  C54      1.0000 0.76531  0.68461  0.12120  Biso   1.000  C 
  C55      1.0000 0.43008  0.59023  0.12549  Biso   1.000  C 
  C56      1.0000 0.34162  0.38865  0.16733  Biso   1.000  C 
  C57      1.0000 0.92467  0.74820  0.42704  Biso   1.000  C 
  C58      1.0000 0.15754  0.75339  0.67496  Biso   1.000  C 
  C59      1.0000 0.97350  0.36527  0.68309  Biso   1.000  C 
  C60      1.0000 0.15278  0.39170  0.40430  Biso   1.000  C 
  C61      1.0000 0.97969  0.42743  0.73672  Biso   1.000  C 
  C62      1.0000 0.17313  0.69183  0.72605  Biso   1.000  C 
  C63      1.0000 0.92644  0.69269  0.36561  Biso   1.000  C 
  C64      1.0000 0.15192  0.45727  0.35842  Biso   1.000  C 
  C65      1.0000 0.48205  0.65262  0.13330  Biso   1.000  C 
  C66      1.0000 0.71527  0.74592  0.11385  Biso   1.000  C 
  C67      1.0000 0.59388  0.43411  0.10230  Biso   1.000  C 
  C68      1.0000 0.39875  0.32899  0.16459  Biso   1.000  C 
  C69      1.0000 0.65518  0.12375  0.49206  Biso   1.000  C 
  C70      1.0000 0.72288  0.16683  0.70798  Biso   1.000  C 
  C71      1.0000 0.32535  0.98314  0.69459  Biso   1.000  C 
  C72      1.0000 0.40049  0.93010  0.45673  Biso   1.000  C 
  C73      1.0000 0.96212  0.63094  0.12293  Biso   1.000  C 
  C74      1.0000 0.12625  0.46944  0.14388  Biso   1.000  C 
  C75      1.0000 0.14723  0.63110  0.95971  Biso   1.000  C 
  C76      1.0000 0.95669  0.45807  0.94375  Biso   1.000  C 
  C77      1.0000 0.19224  0.88056  0.43758  Biso   1.000  C 
  C78      1.0000 0.25656  0.22947  0.62626  Biso   1.000  C 
  C79      1.0000 0.96978  0.14962  0.62438  Biso   1.000  C 
  C80      1.0000 0.92036  0.94180  0.47708  Biso   1.000  C 
  C81      1.0000 0.61300  0.11762  0.95841  Biso   1.000  C 
  C82      1.0000 0.46843  0.11524  0.13026  Biso   1.000  C 
  C83      1.0000 0.46644  0.87345  0.18348  Biso   1.000  C 
  C84      1.0000 0.45025  0.92917  0.95069  Biso   1.000  C 
  C85      1.0000 0.47744  0.10302  0.60906  Biso   1.000  C 
  C86      1.0000 0.65358  0.96602  0.65329  Biso   1.000  C 
  C87      1.0000 0.71905  0.94281  0.39602  Biso   1.000  C 
  C88      1.0000 0.38102  0.11525  0.35038  Biso   1.000  C 
  C89      1.0000 0.71676  0.35115  0.94350  Biso   1.000  C 
  C90      1.0000 0.62975  0.61349  0.96537  Biso   1.000  C 
  C91      1.0000 0.37903  0.71404  0.95477  Biso   1.000  C 
  C92      1.0000 0.42871  0.42134  0.96919  Biso   1.000  C 
  C93      1.0000 0.13312  0.68585  0.42843  Biso   1.000  C 
  C94      1.0000 0.98356  0.63040  0.62880  Biso   1.000  C 
  C95      1.0000 0.15357  0.45398  0.61134  Biso   1.000  C 
  C96      1.0000 0.95627  0.46698  0.45159  Biso   1.000  C 
  H1       1.0000 0.90158  0.42335  0.29561  Biso   1.000  H 
  H2       1.0000 0.13535  0.71759  0.24784  Biso   1.000  H 
  H3       1.0000 0.16864  0.40795  0.81820  Biso   1.000  H 
  H4       1.0000 0.80690  0.67865  0.89743  Biso   1.000  H 
  H5       1.0000 0.15373  0.06620  0.63136  Biso   1.000  H 
  H6       1.0000 0.20885  0.10559  0.38265  Biso   1.000  H 
  H7       1.0000 0.79186  0.18176  0.43106  Biso   1.000  H 
  H8       1.0000 0.81102  0.95676  0.72439  Biso   1.000  H 
  H9       1.0000 0.38712  0.26560  0.92522  Biso   1.000  H 
  H10      1.0000 0.65474  0.29398  0.19169  Biso   1.000  H 
  H11      1.0000 0.69007  0.91296  0.04363  Biso   1.000  H 
  H12      1.0000 0.66721  0.76815  0.90455  Biso   1.000  H 
  H13      1.0000 0.69681  0.01192  0.18038  Biso   1.000  H 
  H14      1.0000 0.66238  0.17828  0.30588  Biso   1.000  H 
  H15      1.0000 0.39825  0.16236  0.79659  Biso   1.000  H 
  H16      1.0000 0.67398  0.90259  0.80243  Biso   1.000  H 
  H17      1.0000 0.91138  0.30286  0.40775  Biso   1.000  H 
  H18      1.0000 0.08293  0.19449  0.41556  Biso   1.000  H 
  H19      1.0000 0.03517  0.95811  0.64434  Biso   1.000  H 
  H20      1.0000 0.90715  0.81143  0.71510  Biso   1.000  H 
  H21      1.0000 0.26394  0.37520  0.94186  Biso   1.000  H 
  H22      1.0000 0.27785  0.69543  0.15601  Biso   1.000  H 
  H23      1.0000 0.80412  0.41858  0.15745  Biso   1.000  H 
  H24      1.0000 0.93128  0.68593  0.79107  Biso   1.000  H 
  H25      1.0000 0.39006  0.92287  0.79055  Biso   1.000  H 
  H26      1.0000 0.64118  0.19329  0.80395  Biso   1.000  H 
  H27      1.0000 0.55474  0.16551  0.41572  Biso   1.000  H 
  H28      1.0000 0.50358  0.87539  0.38996  Biso   1.000  H 
  H29      1.0000 0.67530  0.52658  0.14554  Biso   1.000  H 
  H30      1.0000 0.82033  0.68367  0.15652  Biso   1.000  H 
  H31      1.0000 0.43090  0.52765  0.14471  Biso   1.000  H 
  H32      1.0000 0.29817  0.40401  0.21280  Biso   1.000  H 
  H33      1.0000 0.87292  0.78016  0.44673  Biso   1.000  H 
  H34      1.0000 0.19518  0.79663  0.64851  Biso   1.000  H 
  H35      1.0000 0.92767  0.31721  0.67874  Biso   1.000  H 
  H36      1.0000 0.20232  0.35121  0.41940  Biso   1.000  H 
  H37      1.0000 0.94223  0.44225  0.78489  Biso   1.000  H 
  H38      1.0000 0.22298  0.68752  0.77196  Biso   1.000  H 
  H39      1.0000 0.87972  0.68406  0.31927  Biso   1.000  H 
  H40      1.0000 0.20969  0.47980  0.32939  Biso   1.000  H 
  H41      1.0000 0.52907  0.65864  0.17795  Biso   1.000  H 
  H42      1.0000 0.70533  0.80036  0.14806  Biso   1.000  H 
  H43      1.0000 0.53587  0.43311  0.13384  Biso   1.000  H 
  H44      1.0000 0.42437  0.28932  0.20805  Biso   1.000  H 
  H45      1.0000 0.66518  0.17163  0.53287  Biso   1.000  H 
  H46      1.0000 0.75769  0.22359  0.69920  Biso   1.000  H 
  H47      1.0000 0.26630  0.95747  0.70191  Biso   1.000  H 
  H48      1.0000 0.38456  0.89432  0.50647  Biso   1.000  H 
  H49      1.0000 0.91777  0.65237  0.08115  Biso   1.000  H 
  H50      1.0000 0.07769  0.48262  0.10541  Biso   1.000  H 
  H51      1.0000 0.16850  0.68218  0.92393  Biso   1.000  H 
  H52      1.0000 0.01409  0.43285  0.91730  Biso   1.000  H 
  H53      1.0000 0.20467  0.93193  0.39832  Biso   1.000  H 
  H54      1.0000 0.22149  0.27501  0.65438  Biso   1.000  H 
  H55      1.0000 0.00599  0.09532  0.61273  Biso   1.000  H 
  H56      1.0000 0.91061  0.90095  0.42817  Biso   1.000  H 
  H57      1.0000 0.63635  0.16425  0.00284  Biso   1.000  H 
  H58      1.0000 0.45465  0.13202  0.06537  Biso   1.000  H 
  H59      1.0000 0.41689  0.90877  0.17058  Biso   1.000  H 
  H60      1.0000 0.40296  0.93561  0.90508  Biso   1.000  H 
  H61      1.0000 0.44773  0.81837  0.15288  Biso   1.000  H 
  H62      1.0000 0.48649  0.05131  0.12625  Biso   1.000  H 
  H63      1.0000 0.60602  0.06245  0.98949  Biso   1.000  H 
  H64      1.0000 0.42857  0.89518  0.00205  Biso   1.000  H 
  H65      1.0000 0.01092  0.19663  0.64364  Biso   1.000  H 
  H66      1.0000 0.25806  0.17600  0.67032  Biso   1.000  H 
  H67      1.0000 0.24397  0.84095  0.44897  Biso   1.000  H 
  H68      1.0000 0.89012  0.99681  0.45505  Biso   1.000  H 
  H69      1.0000 0.08029  0.62366  0.95031  Biso   1.000  H 
  H70      1.0000 0.17296  0.43517  0.11688  Biso   1.000  H 
  H71      1.0000 0.97437  0.67761  0.17125  Biso   1.000  H 
  H72      1.0000 0.96381  0.45730  0.00738  Biso   1.000  H 
  H73      1.0000 0.50936  0.14904  0.64212  Biso   1.000  H 
  H74      1.0000 0.69721  0.92105  0.66570  Biso   1.000  H 
  H75      1.0000 0.74969  0.91868  0.44810  Biso   1.000  H 
  H76      1.0000 0.43332  0.15859  0.34435  Biso   1.000  H 
  H77      1.0000 0.67010  0.30716  0.92315  Biso   1.000  H 
  H78      1.0000 0.66624  0.57211  0.93164  Biso   1.000  H 
  H79      1.0000 0.40189  0.77419  0.96311  Biso   1.000  H 
  H80      1.0000 0.40061  0.48224  0.95220  Biso   1.000  H 
  H81      1.0000 0.16460  0.69257  0.36864  Biso   1.000  H 
  H82      1.0000 0.95678  0.67428  0.59119  Biso   1.000  H 
  H83      1.0000 0.14674  0.50014  0.57144  Biso   1.000  H 
  H84      1.0000 0.91154  0.44852  0.40853  Biso   1.000  H 
  H85      1.0000 0.19848  0.46002  0.65635  Biso   1.000  H 
  H86      1.0000 0.99442  0.57788  0.59255  Biso   1.000  H 
  H87      1.0000 0.15765  0.73103  0.47002  Biso   1.000  H 
  H88      1.0000 0.95021  0.43939  0.51004  Biso   1.000  H 
  H89      1.0000 0.39889  0.68795  0.89742  Biso   1.000  H 
  H90      1.0000 0.58077  0.58081  0.00168  Biso   1.000  H 
  H91      1.0000 0.73409  0.38856  0.89095  Biso   1.000  H 
  H92      1.0000 0.49487  0.43066  0.97104  Biso   1.000  H 
  H93      1.0000 0.67576  0.90178  0.37358  Biso   1.000  H 
  H94      1.0000 0.60154  0.93821  0.68017  Biso   1.000  H 
  H95      1.0000 0.52477  0.07630  0.57379  Biso   1.000  H 
  H96      1.0000 0.35311  0.11459  0.29179  Biso   1.000  H 
  H97      1.0000 0.01270  0.61553  0.07975  Biso   1.000  H 
  H98      1.0000 0.11088  0.43237  0.19624  Biso   1.000  H 
  H99      1.0000 0.16319  0.64230  0.02028  Biso   1.000  H 
  H100     1.0000 0.91472  0.41176  0.93120  Biso   1.000  H 
  H101     1.0000 0.14975  0.84038  0.40887  Biso   1.000  H 
  H102     1.0000 0.31553  0.25731  0.61955  Biso   1.000  H 
  H103     1.0000 0.92501  0.13901  0.67101  Biso   1.000  H 
  H104     1.0000 0.98251  0.95853  0.47329  Biso   1.000  H 
  H105     1.0000 0.65631  0.10687  0.91145  Biso   1.000  H 
  H106     1.0000 0.41196  0.11620  0.16253  Biso   1.000  H 
  H107     1.0000 0.46938  0.86434  0.24894  Biso   1.000  H 
  H108     1.0000 0.46942  0.98620  0.98062  Biso   1.000  H 
  H109     1.0000 0.44038  0.14125  0.56939  Biso   1.000  H 
  H110     1.0000 0.64524  0.97626  0.58927  Biso   1.000  H 
  H111     1.0000 0.76109  0.95033  0.34629  Biso   1.000  H 
  H112     1.0000 0.33639  0.14536  0.38844  Biso   1.000  H 
  H113     1.0000 0.76702  0.31625  0.96346  Biso   1.000  H 
  H114     1.0000 0.59506  0.65456  0.92464  Biso   1.000  H 
  H115     1.0000 0.31043  0.72427  0.95960  Biso   1.000  H 
  H116     1.0000 0.42005  0.37458  0.92358  Biso   1.000  H 
  H117     1.0000 0.14281  0.63055  0.45603  Biso   1.000  H 
  H118     1.0000 0.94471  0.60826  0.67671  Biso   1.000  H 
  H119     1.0000 0.16513  0.39645  0.58122  Biso   1.000  H 
  H120     1.0000 0.94754  0.52968  0.45761  Biso   1.000  H 
  N1       1.0000 0.94578  0.52771  0.23443  Biso   1.000  N 
  N2       1.0000 0.11425  0.59982  0.21713  Biso   1.000  N 
  N3       1.0000 0.15391  0.51757  0.86656  Biso   1.000  N 
  N4       1.0000 0.86782  0.57355  0.93609  Biso   1.000  N 
  N5       1.0000 0.20103  0.97809  0.54959  Biso   1.000  N 
  N6       1.0000 0.25854  0.14934  0.49562  Biso   1.000  N 
  N7       1.0000 0.86467  0.14926  0.52685  Biso   1.000  N 
  N8       1.0000 0.84960  0.96682  0.60551  Biso   1.000  N 
  N9       1.0000 0.50077  0.21608  0.95386  Biso   1.000  N 
  N10      1.0000 0.56850  0.21846  0.13965  Biso   1.000  N 
  N11      1.0000 0.58097  0.88238  0.09514  Biso   1.000  N 
  N12      1.0000 0.55534  0.82681  0.93835  Biso   1.000  N 
  N13      1.0000 0.58617  0.95686  0.20350  Biso   1.000  N 
  N14      1.0000 0.56278  0.13441  0.23803  Biso   1.000  N 
  N15      1.0000 0.49873  0.11744  0.86283  Biso   1.000  N 
  N16      1.0000 0.56270  0.92749  0.85626  Biso   1.000  N 
  N17      1.0000 0.96036  0.24018  0.51128  Biso   1.000  N 
  N18      1.0000 0.15053  0.22340  0.52245  Biso   1.000  N 
  N19      1.0000 0.09312  0.90157  0.55156  Biso   1.000  N 
  N20      1.0000 0.92803  0.86030  0.59730  Biso   1.000  N 
  N21      1.0000 0.22955  0.50343  0.97354  Biso   1.000  N 
  N22      1.0000 0.22313  0.58104  0.14626  Biso   1.000  N 
  N23      1.0000 0.86672  0.51745  0.13033  Biso   1.000  N 
  N24      1.0000 0.96989  0.57859  0.85137  Biso   1.000  N 
  N25      1.0000 0.45139  0.00964  0.72080  Biso   1.000  N 
  N26      1.0000 0.63283  0.07455  0.75048  Biso   1.000  N 
  N27      1.0000 0.61904  0.05399  0.38718  Biso   1.000  N 
  N28      1.0000 0.45874  0.98858  0.35189  Biso   1.000  N 
  N29      1.0000 0.71360  0.45446  0.05122  Biso   1.000  N 
  N30      1.0000 0.74363  0.63007  0.06017  Biso   1.000  N 
  N31      1.0000 0.38157  0.60837  0.06185  Biso   1.000  N 
  N32      1.0000 0.34152  0.42706  0.09506  Biso   1.000  N 
  N33      1.0000 0.99754  0.75602  0.45763  Biso   1.000  N 
  N34      1.0000 0.08700  0.73428  0.63490  Biso   1.000  N 
  N35      1.0000 0.03563  0.37182  0.62664  Biso   1.000  N 
  N36      1.0000 0.08378  0.39010  0.44682  Biso   1.000  N 
  N37      1.0000 0.04493  0.47018  0.71551  Biso   1.000  N 
  N38      1.0000 0.10818  0.64169  0.72289  Biso   1.000  N 
  N39      1.0000 0.00419  0.66550  0.35684  Biso   1.000  N 
  N40      1.0000 0.07804  0.49580  0.36684  Biso   1.000  N 
  N41      1.0000 0.46714  0.70816  0.07363  Biso   1.000  N 
  N42      1.0000 0.66071  0.73165  0.05581  Biso   1.000  N 
  N43      1.0000 0.60333  0.37892  0.03862  Biso   1.000  N 
  N44      1.0000 0.43317  0.32694  0.08585  Biso   1.000  N 
  N45      1.0000 0.70721  0.06058  0.48658  Biso   1.000  N 
  N46      1.0000 0.72922  0.10104  0.65846  Biso   1.000  N 
  N47      1.0000 0.34899  0.03592  0.63581  Biso   1.000  N 
  N48      1.0000 0.36853  0.00637  0.44427  Biso   1.000  N 
  Zn1      1.0000 0.03511  0.57407  0.29988  Biso   1.000  Zn
  Zn2      1.0000 0.07005  0.55996  0.79404  Biso   1.000  Zn
  Zn3      1.0000 0.29667  0.04449  0.52808  Biso   1.000  Zn
  Zn4      1.0000 0.79811  0.06467  0.56847  Biso   1.000  Zn
  Zn5      1.0000 0.53428  0.28168  0.04226  Biso   1.000  Zn
  Zn6      1.0000 0.55644  0.78041  0.04282  Biso   1.000  Zn
  Zn7      1.0000 0.55087  0.03011  0.29313  Biso   1.000  Zn
  Zn8      1.0000 0.53620  0.02316  0.79775  Biso   1.000  Zn
  Zn9      1.0000 0.05501  0.30796  0.53147  Biso   1.000  Zn
  Zn10     1.0000 0.02845  0.80272  0.55390  Biso   1.000  Zn
  Zn11     1.0000 0.29519  0.52835  0.06501  Biso   1.000  Zn
  Zn12     1.0000 0.79860  0.53496  0.03199  Biso   1.000  Zn
