data_image0
_cell_length_a       16.9932
_cell_length_b       16.9932
_cell_length_c       16.9932
_cell_angle_alpha    90
_cell_angle_beta     90
_cell_angle_gamma    90

_symmetry_space_group_name_H-M    "P 1"
_symmetry_int_tables_number       1

loop_
  _symmetry_equiv_pos_as_xyz
  'x, y, z'

loop_
  _atom_site_label
  _atom_site_occupancy
  _atom_site_fract_x
  _atom_site_fract_y
  _atom_site_fract_z
  _atom_site_thermal_displace_type
  _atom_site_B_iso_or_equiv
  _atom_site_type_symbol
  C1       1.0000 0.92881  0.55249  0.16881  Biso   1.000  C 
  C2       1.0000 0.16689  0.53222  0.17293  Biso   1.000  C 
  C3       1.0000 0.17544  0.56041  0.92708  Biso   1.000  C 
  C4       1.0000 0.93565  0.54656  0.93332  Biso   1.000  C 
  C5       1.0000 0.15667  0.91581  0.54599  Biso   1.000  C 
  C6       1.0000 0.16493  0.16686  0.55036  Biso   1.000  C 
  C7       1.0000 0.92630  0.16590  0.55431  Biso   1.000  C 
  C8       1.0000 0.91130  0.91604  0.53393  Biso   1.000  C 
  C9       1.0000 0.54982  0.16792  0.91310  Biso   1.000  C 
  C10      1.0000 0.53788  0.17574  0.16290  Biso   1.000  C 
  C11      1.0000 0.52507  0.91806  0.16906  Biso   1.000  C 
  C12      1.0000 0.53432  0.91374  0.90635  Biso   1.000  C 
  C13      1.0000 0.42307  0.04907  0.66204  Biso   1.000  C 
  C14      1.0000 0.67444  0.04705  0.67475  Biso   1.000  C 
  C15      1.0000 0.66276  0.05645  0.42389  Biso   1.000  C 
  C16      1.0000 0.42214  0.03274  0.40938  Biso   1.000  C 
  C17      1.0000 0.67106  0.42404  0.04677  Biso   1.000  C 
  C18      1.0000 0.66535  0.66503  0.02612  Biso   1.000  C 
  C19      1.0000 0.41697  0.68847  0.06395  Biso   1.000  C 
  C20      1.0000 0.43035  0.43340  0.03594  Biso   1.000  C 
  C21      1.0000 0.04910  0.66246  0.42093  Biso   1.000  C 
  C22      1.0000 0.03465  0.67201  0.67317  Biso   1.000  C 
  C23      1.0000 0.05941  0.41507  0.69678  Biso   1.000  C 
  C24      1.0000 0.03573  0.42753  0.44414  Biso   1.000  C 
  C25      1.0000 0.89546  0.45220  0.24196  Biso   1.000  C 
  C26      1.0000 0.18616  0.62260  0.26328  Biso   1.000  C 
  C27      1.0000 0.18999  0.44867  0.86336  Biso   1.000  C 
  C28      1.0000 0.92618  0.65918  0.86537  Biso   1.000  C 
  C29      1.0000 0.21977  0.92180  0.43264  Biso   1.000  C 
  C30      1.0000 0.22826  0.16446  0.66427  Biso   1.000  C 
  C31      1.0000 0.83505  0.19755  0.46534  Biso   1.000  C 
  C32      1.0000 0.84002  0.90893  0.64099  Biso   1.000  C 
  C33      1.0000 0.43945  0.23625  0.90127  Biso   1.000  C 
  C34      1.0000 0.62305  0.26901  0.18209  Biso   1.000  C 
  C35      1.0000 0.64436  0.90783  0.12055  Biso   1.000  C 
  C36      1.0000 0.63461  0.83698  0.87903  Biso   1.000  C 
  C37      1.0000 0.64075  0.96991  0.17450  Biso   1.000  C 
  C38      1.0000 0.62929  0.21437  0.24555  Biso   1.000  C 
  C39      1.0000 0.43929  0.17606  0.84497  Biso   1.000  C 
  C40      1.0000 0.63859  0.90480  0.83475  Biso   1.000  C 
  C41      1.0000 0.88869  0.25889  0.47013  Biso   1.000  C 
  C42      1.0000 0.17278  0.22386  0.66685  Biso   1.000  C 
  C43      1.0000 0.15860  0.86900  0.42625  Biso   1.000  C 
  C44      1.0000 0.89990  0.85243  0.64692  Biso   1.000  C 
  C45      1.0000 0.23688  0.44643  0.92901  Biso   1.000  C 
  C46      1.0000 0.24437  0.63119  0.20441  Biso   1.000  C 
  C47      1.0000 0.83814  0.45654  0.18297  Biso   1.000  C 
  C48      1.0000 0.86899  0.65596  0.92241  Biso   1.000  C 
  C49      1.0000 0.42521  0.93585  0.72732  Biso   1.000  C 
  C50      1.0000 0.67338  0.16446  0.73054  Biso   1.000  C 
  C51      1.0000 0.69210  0.95622  0.34326  Biso   1.000  C 
  C52      1.0000 0.41080  0.14814  0.35478  Biso   1.000  C 
  C53      1.0000 0.73888  0.40726  0.93970  Biso   1.000  C 
  C54      1.0000 0.72394  0.65554  0.14395  Biso   1.000  C 
  C55      1.0000 0.35128  0.68707  0.95397  Biso   1.000  C 
  C56      1.0000 0.36184  0.42045  0.14437  Biso   1.000  C 
  C57      1.0000 0.93909  0.72544  0.40519  Biso   1.000  C 
  C58      1.0000 0.15715  0.71946  0.66430  Biso   1.000  C 
  C59      1.0000 0.95449  0.33592  0.71356  Biso   1.000  C 
  C60      1.0000 0.14507  0.36036  0.44971  Biso   1.000  C 
  C61      1.0000 0.95140  0.39932  0.76552  Biso   1.000  C 
  C62      1.0000 0.15502  0.65948  0.72182  Biso   1.000  C 
  C63      1.0000 0.93821  0.65951  0.35730  Biso   1.000  C 
  C64      1.0000 0.14730  0.40280  0.38008  Biso   1.000  C 
  C65      1.0000 0.40763  0.74398  0.94776  Biso   1.000  C 
  C66      1.0000 0.67252  0.71453  0.14642  Biso   1.000  C 
  C67      1.0000 0.67756  0.35425  0.93935  Biso   1.000  C 
  C68      1.0000 0.40835  0.35237  0.13395  Biso   1.000  C 
  C69      1.0000 0.73607  0.94998  0.41293  Biso   1.000  C 
  C70      1.0000 0.73599  0.16009  0.68051  Biso   1.000  C 
  C71      1.0000 0.36960  0.92867  0.66554  Biso   1.000  C 
  C72      1.0000 0.35170  0.14108  0.41580  Biso   1.000  C 
  C73      1.0000 0.97273  0.62303  0.13747  Biso   1.000  C 
  C74      1.0000 0.14093  0.46203  0.12652  Biso   1.000  C 
  C75      1.0000 0.14262  0.64150  0.94381  Biso   1.000  C 
  C76      1.0000 0.95695  0.46554  0.96195  Biso   1.000  C 
  C77      1.0000 0.13490  0.92978  0.63012  Biso   1.000  C 
  C78      1.0000 0.13792  0.14009  0.46722  Biso   1.000  C 
  C79      1.0000 0.96718  0.12188  0.61638  Biso   1.000  C 
  C80      1.0000 0.93330  0.94383  0.45236  Biso   1.000  C 
  C81      1.0000 0.62485  0.13522  0.94618  Biso   1.000  C 
  C82      1.0000 0.47301  0.12911  0.13029  Biso   1.000  C 
  C83      1.0000 0.43856  0.90629  0.18476  Biso   1.000  C 
  C84      1.0000 0.46171  0.95026  0.94769  Biso   1.000  C 
  C85      1.0000 0.44607  0.13215  0.63387  Biso   1.000  C 
  C86      1.0000 0.64098  0.97372  0.63777  Biso   1.000  C 
  C87      1.0000 0.62928  0.13164  0.45685  Biso   1.000  C 
  C88      1.0000 0.44233  0.94770  0.42882  Biso   1.000  C 
  C89      1.0000 0.63407  0.45668  0.12319  Biso   1.000  C 
  C90      1.0000 0.62808  0.63767  0.95049  Biso   1.000  C 
  C91      1.0000 0.44953  0.66850  0.14302  Biso   1.000  C 
  C92      1.0000 0.47075  0.46538  0.96394  Biso   1.000  C 
  C93      1.0000 0.12389  0.63230  0.45887  Biso   1.000  C 
  C94      1.0000 0.95358  0.64898  0.64431  Biso   1.000  C 
  C95      1.0000 0.13532  0.44848  0.65651  Biso   1.000  C 
  C96      1.0000 0.96181  0.46921  0.47239  Biso   1.000  C 
  H1       1.0000 0.90149  0.41077  0.29248  Biso   1.000  H 
  H2       1.0000 0.17336  0.65183  0.32158  Biso   1.000  H 
  H3       1.0000 0.18070  0.39765  0.82245  Biso   1.000  H 
  H4       1.0000 0.94041  0.70479  0.82581  Biso   1.000  H 
  H5       1.0000 0.25932  0.94338  0.38402  Biso   1.000  H 
  H6       1.0000 0.27447  0.14559  0.70520  Biso   1.000  H 
  H7       1.0000 0.78660  0.18733  0.42852  Biso   1.000  H 
  H8       1.0000 0.79591  0.92556  0.68754  Biso   1.000  H 
  H9       1.0000 0.40221  0.28864  0.90324  Biso   1.000  H 
  H10      1.0000 0.66239  0.31712  0.16080  Biso   1.000  H 
  H11      1.0000 0.69405  0.88912  0.08199  Biso   1.000  H 
  H12      1.0000 0.67682  0.78933  0.88563  Biso   1.000  H 
  H13      1.0000 0.68106  0.01794  0.18865  Biso   1.000  H 
  H14      1.0000 0.67933  0.20939  0.28661  Biso   1.000  H 
  H15      1.0000 0.40057  0.16220  0.79524  Biso   1.000  H 
  H16      1.0000 0.67439  0.92467  0.78265  Biso   1.000  H 
  H17      1.0000 0.89448  0.31134  0.42858  Biso   1.000  H 
  H18      1.0000 0.15114  0.26466  0.71182  Biso   1.000  H 
  H19      1.0000 0.14531  0.83232  0.37608  Biso   1.000  H 
  H20      1.0000 0.91935  0.81369  0.69651  Biso   1.000  H 
  H21      1.0000 0.26993  0.39958  0.95166  Biso   1.000  H 
  H22      1.0000 0.29486  0.66856  0.19967  Biso   1.000  H 
  H23      1.0000 0.78123  0.42255  0.17515  Biso   1.000  H 
  H24      1.0000 0.81444  0.69215  0.93459  Biso   1.000  H 
  H25      1.0000 0.44770  0.89277  0.77034  Biso   1.000  H 
  H26      1.0000 0.65836  0.21451  0.77089  Biso   1.000  H 
  H27      1.0000 0.67921  0.92027  0.29277  Biso   1.000  H 
  H28      1.0000 0.42114  0.19773  0.31327  Biso   1.000  H 
  H29      1.0000 0.78024  0.41241  0.89267  Biso   1.000  H 
  H30      1.0000 0.75745  0.61512  0.18601  Biso   1.000  H 
  H31      1.0000 0.30589  0.66667  0.91501  Biso   1.000  H 
  H32      1.0000 0.31632  0.43174  0.19117  Biso   1.000  H 
  H33      1.0000 0.89860  0.77165  0.41457  Biso   1.000  H 
  H34      1.0000 0.20255  0.75567  0.63866  Biso   1.000  H 
  H35      1.0000 0.92283  0.27917  0.70468  Biso   1.000  H 
  H36      1.0000 0.19455  0.32848  0.47393  Biso   1.000  H 
  H37      1.0000 0.90634  0.41787  0.80970  Biso   1.000  H 
  H38      1.0000 0.19973  0.63438  0.76479  Biso   1.000  H 
  H39      1.0000 0.89841  0.64118  0.31016  Biso   1.000  H 
  H40      1.0000 0.18841  0.40618  0.33368  Biso   1.000  H 
  H41      1.0000 0.41709  0.78314  0.89915  Biso   1.000  H 
  H42      1.0000 0.66560  0.75751  0.19089  Biso   1.000  H 
  H43      1.0000 0.66238  0.30627  0.89536  Biso   1.000  H 
  H44      1.0000 0.41263  0.30045  0.16598  Biso   1.000  H 
  H45      1.0000 0.78369  0.90868  0.43406  Biso   1.000  H 
  H46      1.0000 0.77505  0.20403  0.65133  Biso   1.000  H 
  H47      1.0000 0.32489  0.88262  0.64498  Biso   1.000  H 
  H48      1.0000 0.30500  0.18145  0.42843  Biso   1.000  H 
  H49      1.0000 0.00359  0.65400  0.18600  Biso   1.000  H 
  H50      1.0000 0.19256  0.42232  0.11076  Biso   1.000  H 
  H51      1.0000 0.12437  0.66574  0.88683  Biso   1.000  H 
  H52      1.0000 0.00081  0.43383  0.92411  Biso   1.000  H 
  H53      1.0000 0.19061  0.94472  0.66062  Biso   1.000  H 
  H54      1.0000 0.10492  0.08379  0.46477  Biso   1.000  H 
  H55      1.0000 0.02944  0.11216  0.60103  Biso   1.000  H 
  H56      1.0000 0.99614  0.93890  0.44009  Biso   1.000  H 
  H57      1.0000 0.62947  0.07045  0.94914  Biso   1.000  H 
  H58      1.0000 0.42448  0.12466  0.17373  Biso   1.000  H 
  H59      1.0000 0.41113  0.86589  0.14039  Biso   1.000  H 
  H60      1.0000 0.44483  0.91879  0.00155  Biso   1.000  H 
  H61      1.0000 0.42400  0.88267  0.24071  Biso   1.000  H 
  H62      1.0000 0.45241  0.14557  0.07040  Biso   1.000  H 
  H63      1.0000 0.67837  0.16353  0.91737  Biso   1.000  H 
  H64      1.0000 0.46485  0.01900  0.95765  Biso   1.000  H 
  H65      1.0000 0.96489  0.15298  0.67463  Biso   1.000  H 
  H66      1.0000 0.09690  0.18851  0.45203  Biso   1.000  H 
  H67      1.0000 0.09313  0.97807  0.63333  Biso   1.000  H 
  H68      1.0000 0.89831  0.91501  0.40259  Biso   1.000  H 
  H69      1.0000 0.09016  0.63610  0.98435  Biso   1.000  H 
  H70      1.0000 0.09042  0.42765  0.15220  Biso   1.000  H 
  H71      1.0000 0.02066  0.61547  0.08929  Biso   1.000  H 
  H72      1.0000 0.98550  0.47189  0.02496  Biso   1.000  H 
  H73      1.0000 0.39290  0.15956  0.61178  Biso   1.000  H 
  H74      1.0000 0.68524  0.92587  0.62686  Biso   1.000  H 
  H75      1.0000 0.57814  0.14960  0.42407  Biso   1.000  H 
  H76      1.0000 0.50332  0.93261  0.40789  Biso   1.000  H 
  H77      1.0000 0.68094  0.48928  0.15726  Biso   1.000  H 
  H78      1.0000 0.63370  0.67918  0.90400  Biso   1.000  H 
  H79      1.0000 0.40237  0.63204  0.17378  Biso   1.000  H 
  H80      1.0000 0.46182  0.43412  0.90916  Biso   1.000  H 
  H81      1.0000 0.16094  0.59536  0.42125  Biso   1.000  H 
  H82      1.0000 0.92797  0.68896  0.59925  Biso   1.000  H 
  H83      1.0000 0.11359  0.49404  0.61463  Biso   1.000  H 
  H84      1.0000 0.98061  0.52062  0.50695  Biso   1.000  H 
  H85      1.0000 0.16808  0.48185  0.70455  Biso   1.000  H 
  H86      1.0000 0.95450  0.59425  0.60998  Biso   1.000  H 
  H87      1.0000 0.15506  0.68308  0.48298  Biso   1.000  H 
  H88      1.0000 0.91928  0.48909  0.42670  Biso   1.000  H 
  H89      1.0000 0.50433  0.63477  0.13289  Biso   1.000  H 
  H90      1.0000 0.66519  0.58749  0.93184  Biso   1.000  H 
  H91      1.0000 0.58579  0.49814  0.11039  Biso   1.000  H 
  H92      1.0000 0.44570  0.52700  0.95673  Biso   1.000  H 
  H93      1.0000 0.62451  0.12807  0.52426  Biso   1.000  H 
  H94      1.0000 0.59217  0.94741  0.67444  Biso   1.000  H 
  H95      1.0000 0.46481  0.16499  0.68306  Biso   1.000  H 
  H96      1.0000 0.43898  0.93069  0.49234  Biso   1.000  H 
  H97      1.0000 0.93897  0.67184  0.11047  Biso   1.000  H 
  H98      1.0000 0.11966  0.47812  0.06373  Biso   1.000  H 
  H99      1.0000 0.17789  0.68210  0.97391  Biso   1.000  H 
  H100     1.0000 0.90400  0.42892  0.96838  Biso   1.000  H 
  H101     1.0000 0.11493  0.87429  0.66093  Biso   1.000  H 
  H102     1.0000 0.18476  0.14026  0.42920  Biso   1.000  H 
  H103     1.0000 0.93498  0.06213  0.62665  Biso   1.000  H 
  H104     1.0000 0.92150  0.00533  0.44930  Biso   1.000  H 
  H105     1.0000 0.63751  0.16037  0.00646  Biso   1.000  H 
  H106     1.0000 0.49229  0.07376  0.11436  Biso   1.000  H 
  H107     1.0000 0.39969  0.96035  0.17192  Biso   1.000  H 
  H108     1.0000 0.41162  0.94142  0.90769  Biso   1.000  H 
  H109     1.0000 0.49310  0.12422  0.58494  Biso   1.000  H 
  H110     1.0000 0.61421  0.99223  0.58241  Biso   1.000  H 
  H111     1.0000 0.67056  0.18201  0.44396  Biso   1.000  H 
  H112     1.0000 0.39963  0.91083  0.39654  Biso   1.000  H 
  H113     1.0000 0.60536  0.41516  0.16043  Biso   1.000  H 
  H114     1.0000 0.56590  0.61966  0.95317  Biso   1.000  H 
  H115     1.0000 0.45718  0.72772  0.16407  Biso   1.000  H 
  H116     1.0000 0.53491  0.46279  0.97634  Biso   1.000  H 
  H117     1.0000 0.10363  0.59449  0.50928  Biso   1.000  H 
  H118     1.0000 0.91333  0.63942  0.69463  Biso   1.000  H 
  H119     1.0000 0.17197  0.40205  0.62687  Biso   1.000  H 
  H120     1.0000 0.92768  0.42568  0.50755  Biso   1.000  H 
  N1       1.0000 0.95268  0.50868  0.23363  Biso   1.000  N 
  N2       1.0000 0.13936  0.55921  0.24157  Biso   1.000  N 
  N3       1.0000 0.14897  0.51807  0.86203  Biso   1.000  N 
  N4       1.0000 0.96990  0.58810  0.87262  Biso   1.000  N 
  N5       1.0000 0.22107  0.95051  0.51107  Biso   1.000  N 
  N6       1.0000 0.22509  0.13070  0.58905  Biso   1.000  N 
  N7       1.0000 0.86034  0.14078  0.51622  Biso   1.000  N 
  N8       1.0000 0.85109  0.95239  0.57259  Biso   1.000  N 
  N9       1.0000 0.50949  0.23251  0.94237  Biso   1.000  N 
  N10      1.0000 0.56559  0.24250  0.13226  Biso   1.000  N 
  N11      1.0000 0.57082  0.87716  0.11573  Biso   1.000  N 
  N12      1.0000 0.56957  0.84463  0.93039  Biso   1.000  N 
  N13      1.0000 0.56670  0.97476  0.20092  Biso   1.000  N 
  N14      1.0000 0.57315  0.15524  0.23303  Biso   1.000  N 
  N15      1.0000 0.51018  0.13433  0.85297  Biso   1.000  N 
  N16      1.0000 0.57383  0.95094  0.85017  Biso   1.000  N 
  N17      1.0000 0.94571  0.23980  0.52736  Biso   1.000  N 
  N18      1.0000 0.13136  0.22220  0.59718  Biso   1.000  N 
  N19      1.0000 0.11547  0.87012  0.49790  Biso   1.000  N 
  N20      1.0000 0.94456  0.85733  0.57563  Biso   1.000  N 
  N21      1.0000 0.22871  0.51919  0.96790  Biso   1.000  N 
  N22      1.0000 0.23338  0.57579  0.14446  Biso   1.000  N 
  N23      1.0000 0.86395  0.51872  0.13345  Biso   1.000  N 
  N24      1.0000 0.87157  0.58373  0.96061  Biso   1.000  N 
  N25      1.0000 0.46104  0.00879  0.72259  Biso   1.000  N 
  N26      1.0000 0.63346  0.09123  0.72771  Biso   1.000  N 
  N27      1.0000 0.64400  0.02275  0.35315  Biso   1.000  N 
  N28      1.0000 0.45376  0.07684  0.35308  Biso   1.000  N 
  N29      1.0000 0.73298  0.45322  0.00489  Biso   1.000  N 
  N30      1.0000 0.71752  0.62211  0.06789  Biso   1.000  N 
  N31      1.0000 0.35630  0.65261  0.02536  Biso   1.000  N 
  N32      1.0000 0.37266  0.46593  0.08043  Biso   1.000  N 
  N33      1.0000 0.00799  0.72497  0.44559  Biso   1.000  N 
  N34      1.0000 0.08125  0.72495  0.63706  Biso   1.000  N 
  N35      1.0000 0.02609  0.34663  0.66949  Biso   1.000  N 
  N36      1.0000 0.07787  0.37728  0.49028  Biso   1.000  N 
  N37      1.0000 0.01333  0.45000  0.74832  Biso   1.000  N 
  N38      1.0000 0.07816  0.63256  0.72967  Biso   1.000  N 
  N39      1.0000 0.01001  0.62289  0.36239  Biso   1.000  N 
  N40      1.0000 0.07618  0.44425  0.37488  Biso   1.000  N 
  N41      1.0000 0.44688  0.74486  0.01854  Biso   1.000  N 
  N42      1.0000 0.64174  0.72483  0.07445  Biso   1.000  N 
  N43      1.0000 0.63849  0.35972  0.00774  Biso   1.000  N 
  N44      1.0000 0.45114  0.35858  0.06515  Biso   1.000  N 
  N45      1.0000 0.71894  0.01473  0.46036  Biso   1.000  N 
  N46      1.0000 0.73778  0.08746  0.64433  Biso   1.000  N 
  N47      1.0000 0.36896  0.00356  0.63057  Biso   1.000  N 
  N48      1.0000 0.35866  0.06899  0.44800  Biso   1.000  N 
  Zn1      1.0000 0.04246  0.52866  0.30144  Biso   1.000  Zn
  Zn2      1.0000 0.04886  0.54626  0.79928  Biso   1.000  Zn
  Zn3      1.0000 0.29303  0.03977  0.54775  Biso   1.000  Zn
  Zn4      1.0000 0.79383  0.04557  0.54789  Biso   1.000  Zn
  Zn5      1.0000 0.54043  0.29827  0.03153  Biso   1.000  Zn
  Zn6      1.0000 0.55266  0.79252  0.03727  Biso   1.000  Zn
  Zn7      1.0000 0.55249  0.05495  0.28813  Biso   1.000  Zn
  Zn8      1.0000 0.54471  0.04762  0.78758  Biso   1.000  Zn
  Zn9      1.0000 0.04181  0.29923  0.56478  Biso   1.000  Zn
  Zn10     1.0000 0.03842  0.79055  0.54037  Biso   1.000  Zn
  Zn11     1.0000 0.30361  0.55513  0.05664  Biso   1.000  Zn
  Zn12     1.0000 0.80029  0.54253  0.04366  Biso   1.000  Zn
