data_image0
_cell_length_a       16.9932
_cell_length_b       16.9932
_cell_length_c       16.9932
_cell_angle_alpha    90
_cell_angle_beta     90
_cell_angle_gamma    90

_symmetry_space_group_name_H-M    "P 1"
_symmetry_int_tables_number       1

loop_
  _symmetry_equiv_pos_as_xyz
  'x, y, z'

loop_
  _atom_site_label
  _atom_site_occupancy
  _atom_site_fract_x
  _atom_site_fract_y
  _atom_site_fract_z
  _atom_site_thermal_displace_type
  _atom_site_B_iso_or_equiv
  _atom_site_type_symbol
  C1       1.0000 0.89856  0.53970  0.17580  Biso   1.000  C 
  C2       1.0000 0.16431  0.53829  0.16755  Biso   1.000  C 
  C3       1.0000 0.16484  0.53133  0.92222  Biso   1.000  C 
  C4       1.0000 0.91705  0.53665  0.90117  Biso   1.000  C 
  C5       1.0000 0.19637  0.90325  0.55855  Biso   1.000  C 
  C6       1.0000 0.16612  0.15934  0.53012  Biso   1.000  C 
  C7       1.0000 0.93165  0.15309  0.55380  Biso   1.000  C 
  C8       1.0000 0.93410  0.91491  0.55964  Biso   1.000  C 
  C9       1.0000 0.56852  0.17588  0.92451  Biso   1.000  C 
  C10      1.0000 0.55112  0.16551  0.17082  Biso   1.000  C 
  C11      1.0000 0.54614  0.92290  0.16496  Biso   1.000  C 
  C12      1.0000 0.51920  0.92350  0.92466  Biso   1.000  C 
  C13      1.0000 0.42864  0.02170  0.67239  Biso   1.000  C 
  C14      1.0000 0.67216  0.04089  0.66986  Biso   1.000  C 
  C15      1.0000 0.66323  0.03578  0.42088  Biso   1.000  C 
  C16      1.0000 0.42612  0.03380  0.41723  Biso   1.000  C 
  C17      1.0000 0.68825  0.42748  0.01835  Biso   1.000  C 
  C18      1.0000 0.65367  0.68182  0.02926  Biso   1.000  C 
  C19      1.0000 0.40656  0.65817  0.05759  Biso   1.000  C 
  C20      1.0000 0.40899  0.41075  0.04954  Biso   1.000  C 
  C21      1.0000 0.05552  0.67383  0.42859  Biso   1.000  C 
  C22      1.0000 0.05745  0.66872  0.68601  Biso   1.000  C 
  C23      1.0000 0.05403  0.40848  0.66561  Biso   1.000  C 
  C24      1.0000 0.01847  0.41934  0.43149  Biso   1.000  C 
  C25      1.0000 0.97736  0.64182  0.16453  Biso   1.000  C 
  C26      1.0000 0.18602  0.64248  0.23594  Biso   1.000  C 
  C27      1.0000 0.16654  0.41986  0.85288  Biso   1.000  C 
  C28      1.0000 0.92248  0.65162  0.83764  Biso   1.000  C 
  C29      1.0000 0.23714  0.91070  0.43795  Biso   1.000  C 
  C30      1.0000 0.23569  0.17182  0.64164  Biso   1.000  C 
  C31      1.0000 0.86412  0.15111  0.44066  Biso   1.000  C 
  C32      1.0000 0.84954  0.90133  0.65436  Biso   1.000  C 
  C33      1.0000 0.46080  0.24929  0.91650  Biso   1.000  C 
  C34      1.0000 0.64910  0.24320  0.19436  Biso   1.000  C 
  C35      1.0000 0.43367  0.85538  0.18641  Biso   1.000  C 
  C36      1.0000 0.61674  0.83944  0.91005  Biso   1.000  C 
  C37      1.0000 0.44001  0.91548  0.24124  Biso   1.000  C 
  C38      1.0000 0.65859  0.17443  0.23631  Biso   1.000  C 
  C39      1.0000 0.45362  0.19231  0.85990  Biso   1.000  C 
  C40      1.0000 0.62347  0.90188  0.85413  Biso   1.000  C 
  C41      1.0000 0.92113  0.21231  0.43688  Biso   1.000  C 
  C42      1.0000 0.17681  0.22765  0.64079  Biso   1.000  C 
  C43      1.0000 0.17401  0.85757  0.44023  Biso   1.000  C 
  C44      1.0000 0.90860  0.84472  0.66010  Biso   1.000  C 
  C45      1.0000 0.22137  0.41742  0.91529  Biso   1.000  C 
  C46      1.0000 0.22914  0.65125  0.16815  Biso   1.000  C 
  C47      1.0000 0.92845  0.64212  0.09891  Biso   1.000  C 
  C48      1.0000 0.85537  0.65114  0.88581  Biso   1.000  C 
  C49      1.0000 0.48179  0.13756  0.65968  Biso   1.000  C 
  C50      1.0000 0.71354  0.12811  0.75589  Biso   1.000  C 
  C51      1.0000 0.68438  0.93424  0.34177  Biso   1.000  C 
  C52      1.0000 0.41516  0.14422  0.35056  Biso   1.000  C 
  C53      1.0000 0.67285  0.50004  0.12127  Biso   1.000  C 
  C54      1.0000 0.73803  0.71402  0.12185  Biso   1.000  C 
  C55      1.0000 0.34946  0.65951  0.94209  Biso   1.000  C 
  C56      1.0000 0.34884  0.41199  0.16085  Biso   1.000  C 
  C57      1.0000 0.94932  0.74832  0.42353  Biso   1.000  C 
  C58      1.0000 0.17650  0.71382  0.67561  Biso   1.000  C 
  C59      1.0000 0.94162  0.34350  0.68219  Biso   1.000  C 
  C60      1.0000 0.13291  0.36462  0.41978  Biso   1.000  C 
  C61      1.0000 0.94740  0.40117  0.74024  Biso   1.000  C 
  C62      1.0000 0.17632  0.64483  0.72440  Biso   1.000  C 
  C63      1.0000 0.94842  0.69486  0.36002  Biso   1.000  C 
  C64      1.0000 0.12936  0.42472  0.36674  Biso   1.000  C 
  C65      1.0000 0.40196  0.71960  0.94651  Biso   1.000  C 
  C66      1.0000 0.66620  0.74836  0.13692  Biso   1.000  C 
  C67      1.0000 0.62439  0.43456  0.12788  Biso   1.000  C 
  C68      1.0000 0.41100  0.36110  0.16780  Biso   1.000  C 
  C69      1.0000 0.74196  0.93261  0.40147  Biso   1.000  C 
  C70      1.0000 0.76094  0.13653  0.68915  Biso   1.000  C 
  C71      1.0000 0.42199  0.13361  0.60757  Biso   1.000  C 
  C72      1.0000 0.35065  0.14016  0.39941  Biso   1.000  C 
  C73      1.0000 0.85638  0.47042  0.21611  Biso   1.000  C 
  C74      1.0000 0.13358  0.45690  0.14380  Biso   1.000  C 
  C75      1.0000 0.13513  0.61059  0.95077  Biso   1.000  C 
  C76      1.0000 0.93938  0.46009  0.94019  Biso   1.000  C 
  C77      1.0000 0.18522  0.93145  0.64299  Biso   1.000  C 
  C78      1.0000 0.13011  0.13838  0.45173  Biso   1.000  C 
  C79      1.0000 0.96524  0.13160  0.63509  Biso   1.000  C 
  C80      1.0000 0.96892  0.93495  0.47771  Biso   1.000  C 
  C81      1.0000 0.64721  0.14582  0.95613  Biso   1.000  C 
  C82      1.0000 0.47975  0.12964  0.12860  Biso   1.000  C 
  C83      1.0000 0.61766  0.94979  0.12338  Biso   1.000  C 
  C84      1.0000 0.43995  0.95512  0.94598  Biso   1.000  C 
  C85      1.0000 0.40330  0.94591  0.70928  Biso   1.000  C 
  C86      1.0000 0.62880  0.96941  0.63909  Biso   1.000  C 
  C87      1.0000 0.63498  0.10723  0.46087  Biso   1.000  C 
  C88      1.0000 0.46033  0.96136  0.45489  Biso   1.000  C 
  C89      1.0000 0.70226  0.41382  0.93045  Biso   1.000  C 
  C90      1.0000 0.62668  0.64169  0.95773  Biso   1.000  C 
  C91      1.0000 0.43599  0.63269  0.13800  Biso   1.000  C 
  C92      1.0000 0.43865  0.44523  0.97536  Biso   1.000  C 
  C93      1.0000 0.12914  0.64186  0.46784  Biso   1.000  C 
  C94      1.0000 0.97484  0.64897  0.65761  Biso   1.000  C 
  C95      1.0000 0.12390  0.44489  0.62206  Biso   1.000  C 
  C96      1.0000 0.93879  0.43814  0.46455  Biso   1.000  C 
  H1       1.0000 0.01958  0.68348  0.18706  Biso   1.000  H 
  H2       1.0000 0.17753  0.68972  0.28061  Biso   1.000  H 
  H3       1.0000 0.14883  0.37729  0.80867  Biso   1.000  H 
  H4       1.0000 0.94450  0.68919  0.78929  Biso   1.000  H 
  H5       1.0000 0.27399  0.93407  0.38542  Biso   1.000  H 
  H6       1.0000 0.27702  0.15543  0.68663  Biso   1.000  H 
  H7       1.0000 0.81947  0.12922  0.40219  Biso   1.000  H 
  H8       1.0000 0.79100  0.90684  0.68236  Biso   1.000  H 
  H9       1.0000 0.42856  0.30062  0.93443  Biso   1.000  H 
  H10      1.0000 0.68457  0.29867  0.19630  Biso   1.000  H 
  H11      1.0000 0.39061  0.80834  0.17957  Biso   1.000  H 
  H12      1.0000 0.65331  0.78671  0.91094  Biso   1.000  H 
  H13      1.0000 0.40117  0.93101  0.29241  Biso   1.000  H 
  H14      1.0000 0.69896  0.15503  0.28217  Biso   1.000  H 
  H15      1.0000 0.41256  0.18464  0.80853  Biso   1.000  H 
  H16      1.0000 0.67176  0.91527  0.81131  Biso   1.000  H 
  H17      1.0000 0.93603  0.25339  0.39398  Biso   1.000  H 
  H18      1.0000 0.15351  0.27185  0.68475  Biso   1.000  H 
  H19      1.0000 0.13605  0.82677  0.39544  Biso   1.000  H 
  H20      1.0000 0.91867  0.80340  0.71082  Biso   1.000  H 
  H21      1.0000 0.26150  0.36991  0.93396  Biso   1.000  H 
  H22      1.0000 0.28420  0.68703  0.15629  Biso   1.000  H 
  H23      1.0000 0.91547  0.67961  0.04709  Biso   1.000  H 
  H24      1.0000 0.80727  0.69189  0.88899  Biso   1.000  H 
  H25      1.0000 0.52361  0.18887  0.66370  Biso   1.000  H 
  H26      1.0000 0.71115  0.16525  0.80694  Biso   1.000  H 
  H27      1.0000 0.67653  0.89183  0.29564  Biso   1.000  H 
  H28      1.0000 0.42688  0.18849  0.30343  Biso   1.000  H 
  H29      1.0000 0.66853  0.55387  0.15722  Biso   1.000  H 
  H30      1.0000 0.79734  0.72850  0.14735  Biso   1.000  H 
  H31      1.0000 0.31106  0.63523  0.89526  Biso   1.000  H 
  H32      1.0000 0.30247  0.43684  0.19934  Biso   1.000  H 
  H33      1.0000 0.90207  0.79097  0.44384  Biso   1.000  H 
  H34      1.0000 0.21894  0.75673  0.65138  Biso   1.000  H 
  H35      1.0000 0.89129  0.30327  0.66559  Biso   1.000  H 
  H36      1.0000 0.18572  0.32775  0.43378  Biso   1.000  H 
  H37      1.0000 0.90004  0.41311  0.78421  Biso   1.000  H 
  H38      1.0000 0.22261  0.62254  0.76393  Biso   1.000  H 
  H39      1.0000 0.92095  0.68756  0.30317  Biso   1.000  H 
  H40      1.0000 0.16481  0.44480  0.32331  Biso   1.000  H 
  H41      1.0000 0.41391  0.76355  0.90202  Biso   1.000  H 
  H42      1.0000 0.64960  0.78699  0.18181  Biso   1.000  H 
  H43      1.0000 0.58505  0.42079  0.17636  Biso   1.000  H 
  H44      1.0000 0.43068  0.32199  0.21598  Biso   1.000  H 
  H45      1.0000 0.78638  0.88800  0.41135  Biso   1.000  H 
  H46      1.0000 0.80506  0.18136  0.66434  Biso   1.000  H 
  H47      1.0000 0.40781  0.17375  0.55757  Biso   1.000  H 
  H48      1.0000 0.29734  0.17592  0.40853  Biso   1.000  H 
  H49      1.0000 0.79290  0.48282  0.21920  Biso   1.000  H 
  H50      1.0000 0.15522  0.43147  0.08987  Biso   1.000  H 
  H51      1.0000 0.08253  0.62965  0.91894  Biso   1.000  H 
  H52      1.0000 0.99290  0.46792  0.97569  Biso   1.000  H 
  H53      1.0000 0.13226  0.90693  0.67491  Biso   1.000  H 
  H54      1.0000 0.06485  0.13481  0.46188  Biso   1.000  H 
  H55      1.0000 0.01900  0.09541  0.63027  Biso   1.000  H 
  H56      1.0000 0.94036  0.90357  0.43131  Biso   1.000  H 
  H57      1.0000 0.69436  0.19225  0.96468  Biso   1.000  H 
  H58      1.0000 0.43376  0.17455  0.12170  Biso   1.000  H 
  H59      1.0000 0.60982  0.00808  0.09128  Biso   1.000  H 
  H60      1.0000 0.42323  0.94377  0.00689  Biso   1.000  H 
  H61      1.0000 0.66961  0.95926  0.16418  Biso   1.000  H 
  H62      1.0000 0.49747  0.10509  0.07069  Biso   1.000  H 
  H63      1.0000 0.64010  0.11656  0.01465  Biso   1.000  H 
  H64      1.0000 0.43773  0.01813  0.93201  Biso   1.000  H 
  H65      1.0000 0.97087  0.18100  0.67562  Biso   1.000  H 
  H66      1.0000 0.14672  0.18947  0.41229  Biso   1.000  H 
  H67      1.0000 0.24017  0.92109  0.67673  Biso   1.000  H 
  H68      1.0000 0.96364  0.00198  0.46706  Biso   1.000  H 
  H69      1.0000 0.11917  0.61144  0.01265  Biso   1.000  H 
  H70      1.0000 0.15109  0.41503  0.19228  Biso   1.000  H 
  H71      1.0000 0.87314  0.41915  0.18010  Biso   1.000  H 
  H72      1.0000 0.89694  0.43100  0.98180  Biso   1.000  H 
  H73      1.0000 0.34807  0.95703  0.74451  Biso   1.000  H 
  H74      1.0000 0.66391  0.91571  0.64598  Biso   1.000  H 
  H75      1.0000 0.57362  0.12429  0.45379  Biso   1.000  H 
  H76      1.0000 0.42297  0.90995  0.44177  Biso   1.000  H 
  H77      1.0000 0.76425  0.42062  0.91174  Biso   1.000  H 
  H78      1.0000 0.67926  0.63929  0.92092  Biso   1.000  H 
  H79      1.0000 0.49704  0.60809  0.12631  Biso   1.000  H 
  H80      1.0000 0.44319  0.50860  0.98931  Biso   1.000  H 
  H81      1.0000 0.15707  0.69599  0.49778  Biso   1.000  H 
  H82      1.0000 0.95136  0.60569  0.69939  Biso   1.000  H 
  H83      1.0000 0.15648  0.40013  0.58651  Biso   1.000  H 
  H84      1.0000 0.90351  0.47742  0.42614  Biso   1.000  H 
  H85      1.0000 0.10841  0.49465  0.58205  Biso   1.000  H 
  H86      1.0000 0.93502  0.70072  0.65322  Biso   1.000  H 
  H87      1.0000 0.11832  0.59982  0.51416  Biso   1.000  H 
  H88      1.0000 0.90058  0.38471  0.47101  Biso   1.000  H 
  H89      1.0000 0.44030  0.67703  0.18578  Biso   1.000  H 
  H90      1.0000 0.60544  0.58242  0.97170  Biso   1.000  H 
  H91      1.0000 0.68379  0.35378  0.91180  Biso   1.000  H 
  H92      1.0000 0.49730  0.41384  0.95723  Biso   1.000  H 
  H93      1.0000 0.64530  0.10243  0.52204  Biso   1.000  H 
  H94      1.0000 0.57801  0.96081  0.68106  Biso   1.000  H 
  H95      1.0000 0.38158  0.90345  0.66270  Biso   1.000  H 
  H96      1.0000 0.51700  0.93941  0.43378  Biso   1.000  H 
  H97      1.0000 0.87835  0.46113  0.27644  Biso   1.000  H 
  H98      1.0000 0.06512  0.45809  0.13423  Biso   1.000  H 
  H99      1.0000 0.18373  0.65500  0.94192  Biso   1.000  H 
  H100     1.0000 0.95766  0.41984  0.89124  Biso   1.000  H 
  H101     1.0000 0.17629  0.99898  0.64232  Biso   1.000  H 
  H102     1.0000 0.15429  0.08344  0.43266  Biso   1.000  H 
  H103     1.0000 0.91936  0.09491  0.66771  Biso   1.000  H 
  H104     1.0000 0.03226  0.92386  0.47833  Biso   1.000  H 
  H105     1.0000 0.66987  0.09767  0.91671  Biso   1.000  H 
  H106     1.0000 0.45115  0.07900  0.16216  Biso   1.000  H 
  H107     1.0000 0.63008  0.90634  0.07616  Biso   1.000  H 
  H108     1.0000 0.39955  0.91904  0.91239  Biso   1.000  H 
  H109     1.0000 0.44498  0.91883  0.74857  Biso   1.000  H 
  H110     1.0000 0.60347  0.97462  0.58206  Biso   1.000  H 
  H111     1.0000 0.67346  0.15965  0.44122  Biso   1.000  H 
  H112     1.0000 0.46554  0.97365  0.51994  Biso   1.000  H 
  H113     1.0000 0.66594  0.45832  0.89568  Biso   1.000  H 
  H114     1.0000 0.58403  0.67956  0.92715  Biso   1.000  H 
  H115     1.0000 0.39999  0.58275  0.16061  Biso   1.000  H 
  H116     1.0000 0.39331  0.44087  0.92831  Biso   1.000  H 
  H117     1.0000 0.17496  0.61188  0.42969  Biso   1.000  H 
  H118     1.0000 0.98095  0.61793  0.59946  Biso   1.000  H 
  H119     1.0000 0.17118  0.46272  0.66955  Biso   1.000  H 
  H120     1.0000 0.94447  0.46718  0.52086  Biso   1.000  H 
  N1       1.0000 0.96031  0.57378  0.21012  Biso   1.000  N 
  N2       1.0000 0.14122  0.57288  0.23675  Biso   1.000  N 
  N3       1.0000 0.13414  0.49646  0.85957  Biso   1.000  N 
  N4       1.0000 0.95755  0.57557  0.84688  Biso   1.000  N 
  N5       1.0000 0.25237  0.93847  0.51210  Biso   1.000  N 
  N6       1.0000 0.22537  0.12577  0.57314  Biso   1.000  N 
  N7       1.0000 0.87161  0.11688  0.51922  Biso   1.000  N 
  N8       1.0000 0.86197  0.93949  0.58620  Biso   1.000  N 
  N9       1.0000 0.52989  0.23821  0.95767  Biso   1.000  N 
  N10      1.0000 0.57784  0.23603  0.15530  Biso   1.000  N 
  N11      1.0000 0.49913  0.86581  0.13633  Biso   1.000  N 
  N12      1.0000 0.54787  0.85361  0.95005  Biso   1.000  N 
  N13      1.0000 0.51093  0.95336  0.22944  Biso   1.000  N 
  N14      1.0000 0.59666  0.12229  0.21967  Biso   1.000  N 
  N15      1.0000 0.52120  0.14629  0.86638  Biso   1.000  N 
  N16      1.0000 0.56436  0.95699  0.86453  Biso   1.000  N 
  N17      1.0000 0.96193  0.21124  0.50660  Biso   1.000  N 
  N18      1.0000 0.13693  0.22175  0.56852  Biso   1.000  N 
  N19      1.0000 0.14565  0.85561  0.51659  Biso   1.000  N 
  N20      1.0000 0.96270  0.85408  0.59934  Biso   1.000  N 
  N21      1.0000 0.21869  0.48718  0.95921  Biso   1.000  N 
  N22      1.0000 0.21834  0.57778  0.12696  Biso   1.000  N 
  N23      1.0000 0.87816  0.57566  0.10738  Biso   1.000  N 
  N24      1.0000 0.85410  0.58002  0.92521  Biso   1.000  N 
  N25      1.0000 0.48951  0.06660  0.70038  Biso   1.000  N 
  N26      1.0000 0.66250  0.06671  0.74359  Biso   1.000  N 
  N27      1.0000 0.63410  0.00003  0.35480  Biso   1.000  N 
  N28      1.0000 0.46467  0.08200  0.36346  Biso   1.000  N 
  N29      1.0000 0.70882  0.49691  0.05046  Biso   1.000  N 
  N30      1.0000 0.73023  0.67337  0.05009  Biso   1.000  N 
  N31      1.0000 0.35227  0.61902  0.01275  Biso   1.000  N 
  N32      1.0000 0.34343  0.43887  0.08582  Biso   1.000  N 
  N33      1.0000 0.01761  0.73236  0.46829  Biso   1.000  N 
  N34      1.0000 0.10208  0.72681  0.64639  Biso   1.000  N 
  N35      1.0000 0.00729  0.35333  0.63234  Biso   1.000  N 
  N36      1.0000 0.06212  0.35782  0.45863  Biso   1.000  N 
  N37      1.0000 0.01746  0.44105  0.73035  Biso   1.000  N 
  N38      1.0000 0.09949  0.62135  0.73042  Biso   1.000  N 
  N39      1.0000 0.01373  0.64779  0.36553  Biso   1.000  N 
  N40      1.0000 0.05579  0.46204  0.37498  Biso   1.000  N 
  N41      1.0000 0.43710  0.72072  0.02044  Biso   1.000  N 
  N42      1.0000 0.61442  0.73108  0.07533  Biso   1.000  N 
  N43      1.0000 0.63754  0.38676  0.06242  Biso   1.000  N 
  N44      1.0000 0.45125  0.36119  0.09513  Biso   1.000  N 
  N45      1.0000 0.72707  0.99654  0.45185  Biso   1.000  N 
  N46      1.0000 0.73246  0.07948  0.63148  Biso   1.000  N 
  N47      1.0000 0.38927  0.05635  0.61283  Biso   1.000  N 
  N48      1.0000 0.35678  0.07048  0.44000  Biso   1.000  N 
  Zn1      1.0000 0.03962  0.55563  0.29772  Biso   1.000  Zn
  Zn2      1.0000 0.04888  0.53559  0.79168  Biso   1.000  Zn
  Zn3      1.0000 0.30130  0.04418  0.54293  Biso   1.000  Zn
  Zn4      1.0000 0.79537  0.03275  0.54043  Biso   1.000  Zn
  Zn5      1.0000 0.54937  0.30443  0.05915  Biso   1.000  Zn
  Zn6      1.0000 0.51888  0.79060  0.04796  Biso   1.000  Zn
  Zn7      1.0000 0.55072  0.03765  0.29403  Biso   1.000  Zn
  Zn8      1.0000 0.55716  0.06113  0.79782  Biso   1.000  Zn
  Zn9      1.0000 0.04500  0.28179  0.54488  Biso   1.000  Zn
  Zn10     1.0000 0.05518  0.79136  0.56563  Biso   1.000  Zn
  Zn11     1.0000 0.28300  0.52867  0.04043  Biso   1.000  Zn
  Zn12     1.0000 0.79280  0.57496  0.02580  Biso   1.000  Zn
