data_image0
_cell_length_a       17.014
_cell_length_b       17.014
_cell_length_c       17.014
_cell_angle_alpha    90
_cell_angle_beta     90
_cell_angle_gamma    90

_symmetry_space_group_name_H-M    "P 1"
_symmetry_int_tables_number       1

loop_
  _symmetry_equiv_pos_as_xyz
  'x, y, z'

loop_
  _atom_site_label
  _atom_site_occupancy
  _atom_site_fract_x
  _atom_site_fract_y
  _atom_site_fract_z
  _atom_site_thermal_displace_type
  _atom_site_B_iso_or_equiv
  _atom_site_type_symbol
  H1       1.0000 0.44330  0.45116  0.12849  Biso   1.000  H 
  H2       1.0000 0.11339  0.43765  0.43435  Biso   1.000  H 
  H3       1.0000 0.46272  0.10358  0.45573  Biso   1.000  H 
  H4       1.0000 0.64454  0.46625  0.99798  Biso   1.000  H 
  H5       1.0000 0.72823  0.01123  0.71748  Biso   1.000  H 
  H6       1.0000 0.99668  0.44675  0.63340  Biso   1.000  H 
  H7       1.0000 0.47338  0.63853  0.03340  Biso   1.000  H 
  H8       1.0000 0.03453  0.59784  0.64352  Biso   1.000  H 
  H9       1.0000 0.47706  0.02530  0.64605  Biso   1.000  H 
  H10      1.0000 0.65073  0.68018  0.10611  Biso   1.000  H 
  H11      1.0000 0.64059  0.00952  0.45718  Biso   1.000  H 
  H12      1.0000 0.97928  0.63990  0.47194  Biso   1.000  H 
  H13      1.0000 0.98067  0.97507  0.59053  Biso   1.000  H 
  H14      1.0000 0.57173  0.99079  0.97487  Biso   1.000  H 
  H15      1.0000 0.91389  0.60010  0.91959  Biso   1.000  H 
  H16      1.0000 0.13404  0.96075  0.54029  Biso   1.000  H 
  H17      1.0000 0.12699  0.59908  0.14273  Biso   1.000  H 
  H18      1.0000 0.53340  0.98607  0.12020  Biso   1.000  H 
  H19      1.0000 0.99277  0.12955  0.49128  Biso   1.000  H 
  H20      1.0000 0.59820  0.16194  0.16630  Biso   1.000  H 
  H21      1.0000 0.95559  0.50042  0.14694  Biso   1.000  H 
  H22      1.0000 0.14044  0.13352  0.58360  Biso   1.000  H 
  H23      1.0000 0.13092  0.51158  0.98230  Biso   1.000  H 
  H24      1.0000 0.50527  0.15088  0.96167  Biso   1.000  H 
  N1       1.0000 0.63173  0.09579  0.70682  Biso   1.000  N 
  N2       1.0000 0.73053  0.64216  0.01180  Biso   1.000  N 
  N3       1.0000 0.01822  0.72492  0.67006  Biso   1.000  N 
  N4       1.0000 0.07257  0.63110  0.38033  Biso   1.000  N 
  N5       1.0000 0.45685  0.76495  0.06412  Biso   1.000  N 
  N6       1.0000 0.38026  0.00496  0.46975  Biso   1.000  N 
  N7       1.0000 0.64172  0.08614  0.35533  Biso   1.000  N 
  N8       1.0000 0.73055  0.46546  0.09322  Biso   1.000  N 
  N9       1.0000 0.01893  0.35415  0.45845  Biso   1.000  N 
  N10      1.0000 0.09704  0.36823  0.62934  Biso   1.000  N 
  N11      1.0000 0.44409  0.36502  0.03847  Biso   1.000  N 
  N12      1.0000 0.35909  0.07135  0.65503  Biso   1.000  N 
  N13      1.0000 0.46608  0.00913  0.37082  Biso   1.000  N 
  N14      1.0000 0.36024  0.66680  0.07704  Biso   1.000  N 
  N15      1.0000 0.07113  0.72840  0.47362  Biso   1.000  N 
  N16      1.0000 0.99839  0.62955  0.76031  Biso   1.000  N 
  N17      1.0000 0.64368  0.74691  0.00062  Biso   1.000  N 
  N18      1.0000 0.72290  0.09494  0.61442  Biso   1.000  N 
  N19      1.0000 0.44826  0.09680  0.74501  Biso   1.000  N 
  N20      1.0000 0.38169  0.48156  0.02741  Biso   1.000  N 
  N21      1.0000 0.08501  0.45075  0.73251  Biso   1.000  N 
  N22      1.0000 0.00460  0.45170  0.36600  Biso   1.000  N 
  N23      1.0000 0.63359  0.37751  0.09176  Biso   1.000  N 
  N24      1.0000 0.74812  0.07705  0.43474  Biso   1.000  N 
  N25      1.0000 0.14616  0.52646  0.24438  Biso   1.000  N 
  N26      1.0000 0.24911  0.13407  0.52076  Biso   1.000  N 
  N27      1.0000 0.49407  0.13398  0.23378  Biso   1.000  N 
  N28      1.0000 0.59851  0.16002  0.87446  Biso   1.000  N 
  N29      1.0000 0.00347  0.21023  0.58698  Biso   1.000  N 
  N30      1.0000 0.86812  0.49816  0.97599  Biso   1.000  N 
  N31      1.0000 0.13203  0.57884  0.87620  Biso   1.000  N 
  N32      1.0000 0.24619  0.93487  0.58186  Biso   1.000  N 
  N33      1.0000 0.53723  0.87250  0.93422  Biso   1.000  N 
  N34      1.0000 0.58871  0.96064  0.23209  Biso   1.000  N 
  N35      1.0000 0.95573  0.86295  0.53773  Biso   1.000  N 
  N36      1.0000 0.86395  0.58595  0.14636  Biso   1.000  N 
  N37      1.0000 0.96616  0.48856  0.88588  Biso   1.000  N 
  N38      1.0000 0.89152  0.14077  0.57033  Biso   1.000  N 
  N39      1.0000 0.58984  0.23749  0.98391  Biso   1.000  N 
  N40      1.0000 0.50030  0.23563  0.15083  Biso   1.000  N 
  N41      1.0000 0.16739  0.23833  0.50896  Biso   1.000  N 
  N42      1.0000 0.24310  0.53675  0.15840  Biso   1.000  N 
  N43      1.0000 0.95549  0.58113  0.23983  Biso   1.000  N 
  N44      1.0000 0.86725  0.96291  0.53805  Biso   1.000  N 
  N45      1.0000 0.59646  0.88003  0.12685  Biso   1.000  N 
  N46      1.0000 0.55635  0.97280  0.84748  Biso   1.000  N 
  N47      1.0000 0.14946  0.84694  0.59649  Biso   1.000  N 
  N48      1.0000 0.22878  0.59292  0.97099  Biso   1.000  N 
  H25      1.0000 0.56015  0.19029  0.66499  Biso   1.000  H 
  H26      1.0000 0.76841  0.64566  0.88797  Biso   1.000  H 
  H27      1.0000 0.99552  0.82030  0.75642  Biso   1.000  H 
  H28      1.0000 0.17069  0.67894  0.31029  Biso   1.000  H 
  H29      1.0000 0.37896  0.86349  0.09538  Biso   1.000  H 
  H30      1.0000 0.32036  0.89370  0.42401  Biso   1.000  H 
  H31      1.0000 0.69295  0.16506  0.26780  Biso   1.000  H 
  H32      1.0000 0.79515  0.42528  0.19222  Biso   1.000  H 
  H33      1.0000 0.89780  0.30957  0.44888  Biso   1.000  H 
  H34      1.0000 0.20503  0.31276  0.67012  Biso   1.000  H 
  H35      1.0000 0.42135  0.32033  0.92278  Biso   1.000  H 
  H36      1.0000 0.26004  0.13977  0.70540  Biso   1.000  H 
  H37      1.0000 0.43661  0.90634  0.30908  Biso   1.000  H 
  H38      1.0000 0.27315  0.74728  0.11844  Biso   1.000  H 
  H39      1.0000 0.17351  0.79101  0.44707  Biso   1.000  H 
  H40      1.0000 0.96485  0.70000  0.86029  Biso   1.000  H 
  H41      1.0000 0.65951  0.76772  0.87673  Biso   1.000  H 
  H42      1.0000 0.68064  0.18832  0.53845  Biso   1.000  H 
  H43      1.0000 0.37406  0.16702  0.81661  Biso   1.000  H 
  H44      1.0000 0.33683  0.47529  0.91554  Biso   1.000  H 
  H45      1.0000 0.19120  0.41049  0.79341  Biso   1.000  H 
  H46      1.0000 0.88434  0.42386  0.33420  Biso   1.000  H 
  H47      1.0000 0.67770  0.31259  0.19147  Biso   1.000  H 
  H48      1.0000 0.82594  0.14494  0.35180  Biso   1.000  H 
  H49      1.0000 0.20961  0.45877  0.33722  Biso   1.000  H 
  H50      1.0000 0.34174  0.16882  0.44550  Biso   1.000  H 
  H51      1.0000 0.37577  0.16191  0.28451  Biso   1.000  H 
  H52      1.0000 0.70711  0.20403  0.83093  Biso   1.000  H 
  H53      1.0000 0.95721  0.29242  0.67819  Biso   1.000  H 
  H54      1.0000 0.85761  0.37086  0.00112  Biso   1.000  H 
  H55      1.0000 0.17923  0.67544  0.79644  Biso   1.000  H 
  H56      1.0000 0.34733  0.86684  0.62083  Biso   1.000  H 
  H57      1.0000 0.50000  0.78042  0.84849  Biso   1.000  H 
  H58      1.0000 0.65363  0.88669  0.31811  Biso   1.000  H 
  H59      1.0000 0.88614  0.77320  0.48181  Biso   1.000  H 
  H60      1.0000 0.79415  0.67947  0.19817  Biso   1.000  H 
  H61      1.0000 0.97739  0.36112  0.89083  Biso   1.000  H 
  H62      1.0000 0.82434  0.21379  0.65699  Biso   1.000  H 
  H63      1.0000 0.69713  0.29981  0.96347  Biso   1.000  H 
  H64      1.0000 0.37918  0.27592  0.17412  Biso   1.000  H 
  H65      1.0000 0.24364  0.31029  0.43047  Biso   1.000  H 
  H66      1.0000 0.32851  0.46569  0.22745  Biso   1.000  H 
  H67      1.0000 0.91580  0.66857  0.31696  Biso   1.000  H 
  H68      1.0000 0.77261  0.89733  0.48483  Biso   1.000  H 
  H69      1.0000 0.65504  0.78303  0.19273  Biso   1.000  H 
  H70      1.0000 0.53670  0.91032  0.74169  Biso   1.000  H 
  H71      1.0000 0.21445  0.75526  0.64484  Biso   1.000  H 
  H72      1.0000 0.29004  0.68500  0.91124  Biso   1.000  H 
  Zn1      1.0000 0.04105  0.53866  0.30879  Biso   1.000  Zn
  Zn2      1.0000 0.31362  0.03272  0.55875  Biso   1.000  Zn
  Zn3      1.0000 0.54253  0.30313  0.06957  Biso   1.000  Zn
  Zn4      1.0000 0.55684  0.07820  0.80424  Biso   1.000  Zn
  Zn5      1.0000 0.07094  0.29516  0.54294  Biso   1.000  Zn
  Zn6      1.0000 0.79608  0.55188  0.05154  Biso   1.000  Zn
  Zn7      1.0000 0.04279  0.53369  0.80709  Biso   1.000  Zn
  Zn8      1.0000 0.56041  0.81311  0.03774  Biso   1.000  Zn
  Zn9      1.0000 0.54798  0.04369  0.29690  Biso   1.000  Zn
  Zn10     1.0000 0.04423  0.79038  0.57459  Biso   1.000  Zn
  Zn11     1.0000 0.80968  0.06132  0.54133  Biso   1.000  Zn
  Zn12     1.0000 0.30358  0.56787  0.05656  Biso   1.000  Zn
  C1       1.0000 0.69835  0.05832  0.68175  Biso   1.000  C 
  C2       1.0000 0.67243  0.68774  0.04681  Biso   1.000  C 
  C3       1.0000 0.01738  0.64709  0.68752  Biso   1.000  C 
  C4       1.0000 0.03712  0.66108  0.44752  Biso   1.000  C 
  C5       1.0000 0.43712  0.68704  0.05313  Biso   1.000  C 
  C6       1.0000 0.43851  0.04562  0.43376  Biso   1.000  C 
  C7       1.0000 0.67271  0.05333  0.42340  Biso   1.000  C 
  C8       1.0000 0.66672  0.43818  0.05339  Biso   1.000  C 
  C9       1.0000 0.05356  0.41418  0.41849  Biso   1.000  C 
  C10      1.0000 0.05305  0.42457  0.66225  Biso   1.000  C 
  C11      1.0000 0.42545  0.43138  0.07134  Biso   1.000  C 
  C12      1.0000 0.43345  0.05892  0.67956  Biso   1.000  C 
  C13      1.0000 0.16712  0.56269  0.17578  Biso   1.000  C 
  C14      1.0000 0.18169  0.16479  0.54204  Biso   1.000  C 
  C15      1.0000 0.53858  0.17393  0.18100  Biso   1.000  C 
  C16      1.0000 0.55828  0.17986  0.94162  Biso   1.000  C 
  C17      1.0000 0.96532  0.14974  0.54439  Biso   1.000  C 
  C18      1.0000 0.91812  0.53533  0.92292  Biso   1.000  C 
  C19      1.0000 0.16021  0.55704  0.94636  Biso   1.000  C 
  C20      1.0000 0.17022  0.92174  0.57732  Biso   1.000  C 
  C21      1.0000 0.55517  0.95130  0.92726  Biso   1.000  C 
  C22      1.0000 0.57091  0.94934  0.15509  Biso   1.000  C 
  C23      1.0000 0.93936  0.93896  0.55992  Biso   1.000  C 
  C24      1.0000 0.92795  0.54915  0.17329  Biso   1.000  C 
  C25      1.0000 0.61325  0.15346  0.65427  Biso   1.000  C 
  C26      1.0000 0.73122  0.67058  0.93470  Biso   1.000  C 
  C27      1.0000 0.99841  0.75946  0.74286  Biso   1.000  C 
  C28      1.0000 0.13764  0.68355  0.36607  Biso   1.000  C 
  C29      1.0000 0.38852  0.79944  0.09001  Biso   1.000  C 
  C30      1.0000 0.37068  0.93555  0.42608  Biso   1.000  C 
  C31      1.0000 0.69927  0.13288  0.32389  Biso   1.000  C 
  C32      1.0000 0.74084  0.41842  0.15925  Biso   1.000  C 
  C33      1.0000 0.94501  0.34959  0.42648  Biso   1.000  C 
  C34      1.0000 0.16229  0.35839  0.68043  Biso   1.000  C 
  C35      1.0000 0.41170  0.37040  0.96464  Biso   1.000  C 
  C36      1.0000 0.32459  0.12588  0.70679  Biso   1.000  C 
  C37      1.0000 0.42519  0.93750  0.36449  Biso   1.000  C 
  C38      1.0000 0.33011  0.74427  0.09389  Biso   1.000  C 
  C39      1.0000 0.13709  0.74174  0.42671  Biso   1.000  C 
  C40      1.0000 0.99250  0.70088  0.79944  Biso   1.000  C 
  C41      1.0000 0.68160  0.73302  0.92758  Biso   1.000  C 
  C42      1.0000 0.67118  0.15479  0.59528  Biso   1.000  C 
  C43      1.0000 0.37734  0.13502  0.76531  Biso   1.000  C 
  C44      1.0000 0.37207  0.44259  0.95868  Biso   1.000  C 
  C45      1.0000 0.15210  0.40765  0.74206  Biso   1.000  C 
  C46      1.0000 0.93184  0.40898  0.37128  Biso   1.000  C 
  C47      1.0000 0.68039  0.36125  0.15488  Biso   1.000  C 
  C48      1.0000 0.76593  0.12613  0.37163  Biso   1.000  C 
  C49      1.0000 0.20773  0.48269  0.27634  Biso   1.000  C 
  C50      1.0000 0.28471  0.18715  0.46664  Biso   1.000  C 
  C51      1.0000 0.42436  0.17350  0.23915  Biso   1.000  C 
  C52      1.0000 0.66341  0.21037  0.87693  Biso   1.000  C 
  C53      1.0000 0.95315  0.24224  0.63632  Biso   1.000  C 
  C54      1.0000 0.88812  0.41801  0.97059  Biso   1.000  C 
  C55      1.0000 0.18590  0.63806  0.84907  Biso   1.000  C 
  C56      1.0000 0.28170  0.86972  0.61421  Biso   1.000  C 
  C57      1.0000 0.52158  0.84458  0.85832  Biso   1.000  C 
  C58      1.0000 0.63324  0.89702  0.25626  Biso   1.000  C 
  C59      1.0000 0.88729  0.83622  0.49976  Biso   1.000  C 
  C60      1.0000 0.84428  0.63931  0.20691  Biso   1.000  C 
  C61      1.0000 0.95485  0.41546  0.91706  Biso   1.000  C 
  C62      1.0000 0.88095  0.20097  0.62554  Biso   1.000  C 
  C63      1.0000 0.65884  0.25555  0.94454  Biso   1.000  C 
  C64      1.0000 0.42654  0.23631  0.18791  Biso   1.000  C 
  C65      1.0000 0.23438  0.25466  0.45983  Biso   1.000  C 
  C66      1.0000 0.26715  0.48701  0.21948  Biso   1.000  C 
  C67      1.0000 0.90276  0.63543  0.26254  Biso   1.000  C 
  C68      1.0000 0.83107  0.89441  0.50574  Biso   1.000  C 
  C69      1.0000 0.63674  0.84604  0.19201  Biso   1.000  C 
  C70      1.0000 0.53239  0.90647  0.80571  Biso   1.000  C 
  C71      1.0000 0.21896  0.81288  0.62034  Biso   1.000  C 
  C72      1.0000 0.23955  0.64786  0.91013  Biso   1.000  C 
