data_image0
_cell_length_a       17.014
_cell_length_b       17.014
_cell_length_c       17.014
_cell_angle_alpha    90
_cell_angle_beta     90
_cell_angle_gamma    90

_symmetry_space_group_name_H-M    "P 1"
_symmetry_int_tables_number       1

loop_
  _symmetry_equiv_pos_as_xyz
  'x, y, z'

loop_
  _atom_site_label
  _atom_site_occupancy
  _atom_site_fract_x
  _atom_site_fract_y
  _atom_site_fract_z
  _atom_site_thermal_displace_type
  _atom_site_B_iso_or_equiv
  _atom_site_type_symbol
  H1       1.0000 0.51605  0.40723  0.93850  Biso   1.000  H 
  H2       1.0000 0.97939  0.72324  0.38036  Biso   1.000  H 
  H3       1.0000 0.45530  0.92020  0.44185  Biso   1.000  H 
  H4       1.0000 0.59906  0.40988  0.07402  Biso   1.000  H 
  H5       1.0000 0.82219  0.00585  0.77742  Biso   1.000  H 
  H6       1.0000 0.10003  0.52118  0.75250  Biso   1.000  H 
  H7       1.0000 0.43740  0.58698  0.98562  Biso   1.000  H 
  H8       1.0000 0.00063  0.61127  0.70024  Biso   1.000  H 
  H9       1.0000 0.47211  0.90151  0.68017  Biso   1.000  H 
  H10      1.0000 0.66855  0.62906  0.97908  Biso   1.000  H 
  H11      1.0000 0.09542  0.20240  0.72904  Biso   1.000  H 
  H12      1.0000 0.63330  0.81373  0.25679  Biso   1.000  H 
  H13      1.0000 0.98293  0.89617  0.79640  Biso   1.000  H 
  H14      1.0000 0.52406  0.90350  0.85584  Biso   1.000  H 
  H15      1.0000 0.90620  0.49101  0.00375  Biso   1.000  H 
  H16      1.0000 0.16184  0.87676  0.51758  Biso   1.000  H 
  H17      1.0000 0.18986  0.55637  0.81802  Biso   1.000  H 
  H18      1.0000 0.58517  0.86863  0.09587  Biso   1.000  H 
  H19      1.0000 0.17469  0.56353  0.62175  Biso   1.000  H 
  H20      1.0000 0.54274  0.05001  0.08047  Biso   1.000  H 
  H21      1.0000 0.69926  0.68725  0.22022  Biso   1.000  H 
  H22      1.0000 0.12085  0.03090  0.54447  Biso   1.000  H 
  H23      1.0000 0.22151  0.35394  0.79224  Biso   1.000  H 
  H24      1.0000 0.54894  0.15761  0.83228  Biso   1.000  H 
  N1       1.0000 0.73848  0.00613  0.67991  Biso   1.000  N 
  N2       1.0000 0.64200  0.57770  0.09048  Biso   1.000  N 
  N3       1.0000 0.06928  0.71814  0.67472  Biso   1.000  N 
  N4       1.0000 0.70610  0.85076  0.35638  Biso   1.000  N 
  N5       1.0000 0.46296  0.68634  0.90935  Biso   1.000  N 
  N6       1.0000 0.42709  0.99070  0.33469  Biso   1.000  N 
  N7       1.0000 0.06254  0.27027  0.61647  Biso   1.000  N 
  N8       1.0000 0.72435  0.41160  0.11203  Biso   1.000  N 
  N9       1.0000 0.87887  0.78068  0.43814  Biso   1.000  N 
  N10      1.0000 0.04272  0.41163  0.73102  Biso   1.000  N 
  N11      1.0000 0.47875  0.29378  0.98270  Biso   1.000  N 
  N12      1.0000 0.54197  0.00849  0.66680  Biso   1.000  N 
  N13      1.0000 0.34964  0.99160  0.44343  Biso   1.000  N 
  N14      1.0000 0.40159  0.57511  0.86865  Biso   1.000  N 
  N15      1.0000 0.59524  0.91450  0.32641  Biso   1.000  N 
  N16      1.0000 0.03313  0.68408  0.79440  Biso   1.000  N 
  N17      1.0000 0.57432  0.68105  0.04996  Biso   1.000  N 
  N18      1.0000 0.86466  0.02289  0.65833  Biso   1.000  N 
  N19      1.0000 0.41791  0.99887  0.61527  Biso   1.000  N 
  N20      1.0000 0.39161  0.38082  0.93033  Biso   1.000  N 
  N21      1.0000 0.99479  0.50002  0.81997  Biso   1.000  N 
  N22      1.0000 0.99207  0.76997  0.50224  Biso   1.000  N 
  N23      1.0000 0.66362  0.29906  0.06610  Biso   1.000  N 
  N24      1.0000 0.98916  0.16924  0.67145  Biso   1.000  N 
  N25      1.0000 0.12002  0.57159  0.92697  Biso   1.000  N 
  N26      1.0000 0.21983  0.00145  0.61803  Biso   1.000  N 
  N27      1.0000 0.53723  0.06953  0.20561  Biso   1.000  N 
  N28      1.0000 0.63985  0.06293  0.83712  Biso   1.000  N 
  N29      1.0000 0.08648  0.59762  0.53565  Biso   1.000  N 
  N30      1.0000 0.82257  0.57439  0.04439  Biso   1.000  N 
  N31      1.0000 0.22803  0.38686  0.67508  Biso   1.000  N 
  N32      1.0000 0.18814  0.75195  0.54319  Biso   1.000  N 
  N33      1.0000 0.60243  0.81194  0.89619  Biso   1.000  N 
  N34      1.0000 0.47421  0.90350  0.15415  Biso   1.000  N 
  N35      1.0000 0.93311  0.93709  0.90166  Biso   1.000  N 
  N36      1.0000 0.76708  0.57802  0.22024  Biso   1.000  N 
  N37      1.0000 0.93244  0.61141  0.97293  Biso   1.000  N 
  N38      1.0000 0.10761  0.46837  0.56521  Biso   1.000  N 
  N39      1.0000 0.61733  0.14657  0.94016  Biso   1.000  N 
  N40      1.0000 0.55319  0.17171  0.12113  Biso   1.000  N 
  N41      1.0000 0.09020  0.00729  0.66256  Biso   1.000  N 
  N42      1.0000 0.23383  0.50751  0.92471  Biso   1.000  N 
  N43      1.0000 0.78048  0.66632  0.31566  Biso   1.000  N 
  N44      1.0000 0.97105  0.02716  0.80704  Biso   1.000  N 
  N45      1.0000 0.48023  0.83912  0.04124  Biso   1.000  N 
  N46      1.0000 0.62092  0.88261  0.78324  Biso   1.000  N 
  N47      1.0000 0.27913  0.84828  0.55682  Biso   1.000  N 
  N48      1.0000 0.31454  0.43472  0.76633  Biso   1.000  N 
  H25      1.0000 0.69519  0.01661  0.56462  Biso   1.000  H 
  H26      1.0000 0.57177  0.55032  0.19401  Biso   1.000  H 
  H27      1.0000 0.12176  0.83493  0.70425  Biso   1.000  H 
  H28      1.0000 0.73309  0.91323  0.46682  Biso   1.000  H 
  H29      1.0000 0.45580  0.74259  0.79669  Biso   1.000  H 
  H30      1.0000 0.37132  0.07232  0.26218  Biso   1.000  H 
  H31      1.0000 0.97811  0.30257  0.52884  Biso   1.000  H 
  H32      1.0000 0.82981  0.35987  0.14082  Biso   1.000  H 
  H33      1.0000 0.81110  0.84625  0.51869  Biso   1.000  H 
  H34      1.0000 0.94838  0.32252  0.74023  Biso   1.000  H 
  H35      1.0000 0.39368  0.20140  0.00785  Biso   1.000  H 
  H36      1.0000 0.57122  0.12303  0.62972  Biso   1.000  H 
  H37      1.0000 0.26657  0.08454  0.39484  Biso   1.000  H 
  H38      1.0000 0.36584  0.60810  0.75347  Biso   1.000  H 
  H39      1.0000 0.59058  0.98691  0.43335  Biso   1.000  H 
  H40      1.0000 0.08451  0.78585  0.85625  Biso   1.000  H 
  H41      1.0000 0.49200  0.69200  0.14402  Biso   1.000  H 
  H42      1.0000 0.85738  0.03357  0.53113  Biso   1.000  H 
  H43      1.0000 0.40990  0.11550  0.57154  Biso   1.000  H 
  H44      1.0000 0.28645  0.29470  0.94316  Biso   1.000  H 
  H45      1.0000 0.88959  0.44185  0.84840  Biso   1.000  H 
  H46      1.0000 0.95570  0.82518  0.60873  Biso   1.000  H 
  H47      1.0000 0.75871  0.22122  0.07542  Biso   1.000  H 
  H48      1.0000 0.89149  0.17212  0.58969  Biso   1.000  H 
  H49      1.0000 0.08531  0.54846  0.04899  Biso   1.000  H 
  H50      1.0000 0.27199  0.95591  0.72602  Biso   1.000  H 
  H51      1.0000 0.54868  0.13782  0.31317  Biso   1.000  H 
  H52      1.0000 0.72515  0.98871  0.89299  Biso   1.000  H 
  H53      1.0000 0.98166  0.58691  0.46449  Biso   1.000  H 
  H54      1.0000 0.79473  0.69134  0.07633  Biso   1.000  H 
  H55      1.0000 0.26344  0.45943  0.58049  Biso   1.000  H 
  H56      1.0000 0.26610  0.65417  0.57910  Biso   1.000  H 
  H57      1.0000 0.71850  0.75243  0.88419  Biso   1.000  H 
  H58      1.0000 0.34784  0.91374  0.15730  Biso   1.000  H 
  H59      1.0000 0.90103  0.02869  0.99272  Biso   1.000  H 
  H60      1.0000 0.85350  0.49188  0.26566  Biso   1.000  H 
  H61      1.0000 0.91384  0.73649  0.97818  Biso   1.000  H 
  H62      1.0000 0.00680  0.42170  0.50186  Biso   1.000  H 
  H63      1.0000 0.69954  0.08974  0.02773  Biso   1.000  H 
  H64      1.0000 0.57017  0.26293  0.20575  Biso   1.000  H 
  H65      1.0000 0.11196  0.98268  0.78289  Biso   1.000  H 
  H66      1.0000 0.23657  0.48141  0.05370  Biso   1.000  H 
  H67      1.0000 0.86175  0.60663  0.38978  Biso   1.000  H 
  H68      1.0000 0.93790  0.13129  0.86839  Biso   1.000  H 
  H69      1.0000 0.35275  0.83976  0.02043  Biso   1.000  H 
  H70      1.0000 0.73438  0.83490  0.75677  Biso   1.000  H 
  H71      1.0000 0.38001  0.77679  0.59140  Biso   1.000  H 
  H72      1.0000 0.38709  0.49385  0.68377  Biso   1.000  H 
  Zn1      1.0000 0.79137  0.77187  0.36196  Biso   1.000  Zn
  Zn2      1.0000 0.31754  0.96213  0.54974  Biso   1.000  Zn
  Zn3      1.0000 0.57381  0.22940  0.01469  Biso   1.000  Zn
  Zn4      1.0000 0.63488  0.99144  0.73579  Biso   1.000  Zn
  Zn5      1.0000 0.11145  0.37596  0.64260  Biso   1.000  Zn
  Zn6      1.0000 0.74153  0.52636  0.11380  Biso   1.000  Zn
  Zn7      1.0000 0.01366  0.60358  0.88488  Biso   1.000  Zn
  Zn8      1.0000 0.53232  0.75807  0.97540  Biso   1.000  Zn
  Zn9      1.0000 0.51071  0.96512  0.25807  Biso   1.000  Zn
  Zn10     1.0000 0.07893  0.71170  0.55565  Biso   1.000  Zn
  Zn11     1.0000 0.97966  0.05456  0.69398  Biso   1.000  Zn
  Zn12     1.0000 0.33730  0.47228  0.87460  Biso   1.000  Zn
  C1       1.0000 0.80782  0.01274  0.71519  Biso   1.000  C 
  C2       1.0000 0.62992  0.62719  0.03044  Biso   1.000  C 
  C3       1.0000 0.03382  0.66285  0.71832  Biso   1.000  C 
  C4       1.0000 0.64402  0.85626  0.30401  Biso   1.000  C 
  C5       1.0000 0.43729  0.61177  0.92872  Biso   1.000  C 
  C6       1.0000 0.41515  0.96290  0.40961  Biso   1.000  C 
  C7       1.0000 0.05827  0.21386  0.67513  Biso   1.000  C 
  C8       1.0000 0.65682  0.37963  0.08171  Biso   1.000  C 
  C9       1.0000 0.95474  0.75466  0.43503  Biso   1.000  C 
  C10      1.0000 0.04945  0.48275  0.76405  Biso   1.000  C 
  C11      1.0000 0.46714  0.36450  0.94823  Biso   1.000  C 
  C12      1.0000 0.47521  0.96285  0.65657  Biso   1.000  C 
  C13      1.0000 0.18235  0.54824  0.88160  Biso   1.000  C 
  C14      1.0000 0.14241  0.01806  0.60224  Biso   1.000  C 
  C15      1.0000 0.53822  0.09339  0.12829  Biso   1.000  C 
  C16      1.0000 0.59541  0.12681  0.86773  Biso   1.000  C 
  C17      1.0000 0.13260  0.54326  0.57680  Biso   1.000  C 
  C18      1.0000 0.88770  0.55015  0.00185  Biso   1.000  C 
  C19      1.0000 0.25581  0.38497  0.74919  Biso   1.000  C 
  C20      1.0000 0.20345  0.83061  0.53668  Biso   1.000  C 
  C21      1.0000 0.57396  0.86738  0.84472  Biso   1.000  C 
  C22      1.0000 0.52274  0.86806  0.10122  Biso   1.000  C 
  C23      1.0000 0.96442  0.94951  0.83157  Biso   1.000  C 
  C24      1.0000 0.74322  0.64764  0.24713  Biso   1.000  C 
  C25      1.0000 0.74774  0.01500  0.60197  Biso   1.000  C 
  C26      1.0000 0.58246  0.59398  0.14691  Biso   1.000  C 
  C27      1.0000 0.09282  0.78129  0.72361  Biso   1.000  C 
  C28      1.0000 0.69194  0.90526  0.41400  Biso   1.000  C 
  C29      1.0000 0.43478  0.69266  0.83127  Biso   1.000  C 
  C30      1.0000 0.36696  0.04526  0.32028  Biso   1.000  C 
  C31      1.0000 0.99846  0.25544  0.57107  Biso   1.000  C 
  C32      1.0000 0.77492  0.34883  0.11652  Biso   1.000  C 
  C33      1.0000 0.86520  0.81441  0.51103  Biso   1.000  C 
  C34      1.0000 0.97000  0.38257  0.76131  Biso   1.000  C 
  C35      1.0000 0.40505  0.25990  0.98718  Biso   1.000  C 
  C36      1.0000 0.52376  0.07981  0.63040  Biso   1.000  C 
  C37      1.0000 0.31857  0.04512  0.38758  Biso   1.000  C 
  C38      1.0000 0.39696  0.62610  0.80550  Biso   1.000  C 
  C39      1.0000 0.62539  0.94709  0.39599  Biso   1.000  C 
  C40      1.0000 0.07041  0.75554  0.79932  Biso   1.000  C 
  C41      1.0000 0.54132  0.66108  0.12070  Biso   1.000  C 
  C42      1.0000 0.82567  0.01966  0.58863  Biso   1.000  C 
  C43      1.0000 0.44913  0.07450  0.60108  Biso   1.000  C 
  C44      1.0000 0.35087  0.30958  0.95491  Biso   1.000  C 
  C45      1.0000 0.94306  0.43763  0.81390  Biso   1.000  C 
  C46      1.0000 0.93797  0.81097  0.54889  Biso   1.000  C 
  C47      1.0000 0.73904  0.28224  0.08273  Biso   1.000  C 
  C48      1.0000 0.95231  0.19475  0.60360  Biso   1.000  C 
  C49      1.0000 0.13331  0.54368  0.00161  Biso   1.000  C 
  C50      1.0000 0.21519  0.97569  0.69698  Biso   1.000  C 
  C51      1.0000 0.55379  0.13475  0.24892  Biso   1.000  C 
  C52      1.0000 0.68788  0.04232  0.89891  Biso   1.000  C 
  C53      1.0000 0.02849  0.55526  0.49912  Biso   1.000  C 
  C54      1.0000 0.82489  0.65363  0.03452  Biso   1.000  C 
  C55      1.0000 0.28129  0.43442  0.64072  Biso   1.000  C 
  C56      1.0000 0.25796  0.71722  0.57081  Biso   1.000  C 
  C57      1.0000 0.67171  0.78933  0.86201  Biso   1.000  C 
  C58      1.0000 0.40117  0.89581  0.12900  Biso   1.000  C 
  C59      1.0000 0.91735  0.01574  0.93140  Biso   1.000  C 
  C60      1.0000 0.82349  0.55216  0.27551  Biso   1.000  C 
  C61      1.0000 0.89524  0.67868  0.99676  Biso   1.000  C 
  C62      1.0000 0.04306  0.47521  0.51355  Biso   1.000  C 
  C63      1.0000 0.67336  0.09046  0.96448  Biso   1.000  C 
  C64      1.0000 0.55959  0.19859  0.19631  Biso   1.000  C 
  C65      1.0000 0.13847  0.98618  0.72538  Biso   1.000  C 
  C66      1.0000 0.20422  0.50243  0.00229  Biso   1.000  C 
  C67      1.0000 0.83018  0.60658  0.33456  Biso   1.000  C 
  C68      1.0000 0.93832  0.06760  0.87164  Biso   1.000  C 
  C69      1.0000 0.40307  0.85125  0.06040  Biso   1.000  C 
  C70      1.0000 0.68347  0.83094  0.79526  Biso   1.000  C 
  C71      1.0000 0.31664  0.77765  0.57381  Biso   1.000  C 
  C72      1.0000 0.33369  0.46311  0.69269  Biso   1.000  C 
