data_image0
_cell_length_a       17.014
_cell_length_b       17.014
_cell_length_c       17.014
_cell_angle_alpha    90
_cell_angle_beta     90
_cell_angle_gamma    90

_symmetry_space_group_name_H-M    "P 1"
_symmetry_int_tables_number       1

loop_
  _symmetry_equiv_pos_as_xyz
  'x, y, z'

loop_
  _atom_site_label
  _atom_site_occupancy
  _atom_site_fract_x
  _atom_site_fract_y
  _atom_site_fract_z
  _atom_site_thermal_displace_type
  _atom_site_B_iso_or_equiv
  _atom_site_type_symbol
  H1       1.0000 0.44194  0.39062  0.94472  Biso   1.000  H 
  H2       1.0000 0.95622  0.64181  0.48948  Biso   1.000  H 
  H3       1.0000 0.43323  0.14253  0.46099  Biso   1.000  H 
  H4       1.0000 0.67084  0.41939  0.96631  Biso   1.000  H 
  H5       1.0000 0.61912  0.08108  0.66006  Biso   1.000  H 
  H6       1.0000 0.98997  0.46919  0.66920  Biso   1.000  H 
  H7       1.0000 0.46033  0.70900  0.97188  Biso   1.000  H 
  H8       1.0000 0.09248  0.64467  0.64764  Biso   1.000  H 
  H9       1.0000 0.44089  0.01297  0.64597  Biso   1.000  H 
  H10      1.0000 0.62722  0.63453  0.04707  Biso   1.000  H 
  H11      1.0000 0.68965  0.98017  0.43277  Biso   1.000  H 
  H12      1.0000 0.03560  0.46079  0.50478  Biso   1.000  H 
  H13      1.0000 0.94673  0.96880  0.64128  Biso   1.000  H 
  H14      1.0000 0.60641  0.94708  0.92214  Biso   1.000  H 
  H15      1.0000 0.97616  0.57571  0.96696  Biso   1.000  H 
  H16      1.0000 0.12714  0.97025  0.50843  Biso   1.000  H 
  H17      1.0000 0.18656  0.48133  0.91607  Biso   1.000  H 
  H18      1.0000 0.49767  0.94008  0.19847  Biso   1.000  H 
  H19      1.0000 0.93540  0.15831  0.55393  Biso   1.000  H 
  H20      1.0000 0.46535  0.19157  0.19408  Biso   1.000  H 
  H21      1.0000 0.89877  0.47210  0.17146  Biso   1.000  H 
  H22      1.0000 0.14089  0.13341  0.64067  Biso   1.000  H 
  H23      1.0000 0.54554  0.53555  0.98851  Biso   1.000  H 
  H24      1.0000 0.53930  0.11741  0.97722  Biso   1.000  H 
  N1       1.0000 0.61469  0.99433  0.75910  Biso   1.000  N 
  N2       1.0000 0.74785  0.65546  0.00573  Biso   1.000  N 
  N3       1.0000 0.99894  0.73161  0.64402  Biso   1.000  N 
  N4       1.0000 0.96578  0.43875  0.39184  Biso   1.000  N 
  N5       1.0000 0.49175  0.73028  0.09066  Biso   1.000  N 
  N6       1.0000 0.44784  0.05366  0.37118  Biso   1.000  N 
  N7       1.0000 0.62289  0.08228  0.40865  Biso   1.000  N 
  N8       1.0000 0.72015  0.47484  0.06904  Biso   1.000  N 
  N9       1.0000 0.04557  0.73334  0.46912  Biso   1.000  N 
  N10      1.0000 0.07817  0.37893  0.64378  Biso   1.000  N 
  N11      1.0000 0.43581  0.32907  0.05620  Biso   1.000  N 
  N12      1.0000 0.33922  0.09273  0.65248  Biso   1.000  N 
  N13      1.0000 0.34836  0.05724  0.45872  Biso   1.000  N 
  N14      1.0000 0.40644  0.63096  0.06139  Biso   1.000  N 
  N15      1.0000 0.98134  0.34823  0.48890  Biso   1.000  N 
  N16      1.0000 0.00680  0.64193  0.74139  Biso   1.000  N 
  N17      1.0000 0.66328  0.75521  0.02331  Biso   1.000  N 
  N18      1.0000 0.72138  0.01218  0.68562  Biso   1.000  N 
  N19      1.0000 0.42928  0.08255  0.75002  Biso   1.000  N 
  N20      1.0000 0.37160  0.44724  0.04094  Biso   1.000  N 
  N21      1.0000 0.09657  0.47982  0.72670  Biso   1.000  N 
  N22      1.0000 0.02960  0.62808  0.38868  Biso   1.000  N 
  N23      1.0000 0.62649  0.37982  0.07583  Biso   1.000  N 
  N24      1.0000 0.71687  0.08139  0.50551  Biso   1.000  N 
  N25      1.0000 0.14355  0.58809  0.87490  Biso   1.000  N 
  N26      1.0000 0.19956  0.13162  0.52785  Biso   1.000  N 
  N27      1.0000 0.57050  0.12530  0.22780  Biso   1.000  N 
  N28      1.0000 0.55400  0.14964  0.85679  Biso   1.000  N 
  N29      1.0000 0.92564  0.25454  0.63440  Biso   1.000  N 
  N30      1.0000 0.86097  0.51794  0.95039  Biso   1.000  N 
  N31      1.0000 0.57305  0.50923  0.86678  Biso   1.000  N 
  N32      1.0000 0.23814  0.94787  0.57218  Biso   1.000  N 
  N33      1.0000 0.52315  0.89290  0.00195  Biso   1.000  N 
  N34      1.0000 0.59682  0.96116  0.26821  Biso   1.000  N 
  N35      1.0000 0.95797  0.89134  0.53595  Biso   1.000  N 
  N36      1.0000 0.86827  0.58492  0.12863  Biso   1.000  N 
  N37      1.0000 0.96429  0.51473  0.86396  Biso   1.000  N 
  N38      1.0000 0.83175  0.16100  0.63490  Biso   1.000  N 
  N39      1.0000 0.58144  0.23708  0.95131  Biso   1.000  N 
  N40      1.0000 0.57286  0.20499  0.12262  Biso   1.000  N 
  N41      1.0000 0.09575  0.21170  0.54966  Biso   1.000  N 
  N42      1.0000 0.26582  0.58621  0.92977  Biso   1.000  N 
  N43      1.0000 0.95837  0.57044  0.22768  Biso   1.000  N 
  N44      1.0000 0.86435  0.98463  0.54767  Biso   1.000  N 
  N45      1.0000 0.59963  0.86714  0.17344  Biso   1.000  N 
  N46      1.0000 0.49355  0.98834  0.91564  Biso   1.000  N 
  N47      1.0000 0.13889  0.86172  0.57716  Biso   1.000  N 
  N48      1.0000 0.44896  0.54521  0.90613  Biso   1.000  N 
  H25      1.0000 0.65887  0.89063  0.82738  Biso   1.000  H 
  H26      1.0000 0.84470  0.72859  0.97320  Biso   1.000  H 
  H27      1.0000 0.88739  0.78712  0.68468  Biso   1.000  H 
  H28      1.0000 0.91587  0.35821  0.30506  Biso   1.000  H 
  H29      1.0000 0.48999  0.71814  0.22424  Biso   1.000  H 
  H30      1.0000 0.41268  0.94176  0.31803  Biso   1.000  H 
  H31      1.0000 0.58487  0.20127  0.42100  Biso   1.000  H 
  H32      1.0000 0.73431  0.49962  0.18551  Biso   1.000  H 
  H33      1.0000 0.13812  0.79153  0.40833  Biso   1.000  H 
  H34      1.0000 0.20357  0.33666  0.64725  Biso   1.000  H 
  H35      1.0000 0.41069  0.31442  0.17770  Biso   1.000  H 
  H36      1.0000 0.25589  0.16749  0.71529  Biso   1.000  H 
  H37      1.0000 0.30213  0.94050  0.43106  Biso   1.000  H 
  H38      1.0000 0.39302  0.58837  0.18385  Biso   1.000  H 
  H39      1.0000 0.93313  0.24830  0.42555  Biso   1.000  H 
  H40      1.0000 0.90028  0.67929  0.80580  Biso   1.000  H 
  H41      1.0000 0.73673  0.85050  0.98774  Biso   1.000  H 
  H42      1.0000 0.78784  0.91054  0.73391  Biso   1.000  H 
  H43      1.0000 0.37244  0.15877  0.83139  Biso   1.000  H 
  H44      1.0000 0.32233  0.45132  0.15590  Biso   1.000  H 
  H45      1.0000 0.21550  0.45627  0.75931  Biso   1.000  H 
  H46      1.0000 0.12981  0.66173  0.31026  Biso   1.000  H 
  H47      1.0000 0.62299  0.37963  0.20674  Biso   1.000  H 
  H48      1.0000 0.69824  0.20341  0.54444  Biso   1.000  H 
  H49      1.0000 0.14810  0.70850  0.83196  Biso   1.000  H 
  H50      1.0000 0.22316  0.17069  0.40612  Biso   1.000  H 
  H51      1.0000 0.69430  0.08538  0.21802  Biso   1.000  H 
  H52      1.0000 0.59200  0.22820  0.75930  Biso   1.000  H 
  H53      1.0000 0.88804  0.31921  0.73847  Biso   1.000  H 
  H54      1.0000 0.78533  0.43157  0.87614  Biso   1.000  H 
  H55      1.0000 0.55039  0.50178  0.74385  Biso   1.000  H 
  H56      1.0000 0.31771  0.89097  0.64738  Biso   1.000  H 
  H57      1.0000 0.39751  0.86166  0.02051  Biso   1.000  H 
  H58      1.0000 0.71825  0.95797  0.29468  Biso   1.000  H 
  H59      1.0000 0.92598  0.84148  0.42821  Biso   1.000  H 
  H60      1.0000 0.86105  0.71300  0.13212  Biso   1.000  H 
  H61      1.0000 0.91150  0.43867  0.77378  Biso   1.000  H 
  H62      1.0000 0.77321  0.20682  0.74704  Biso   1.000  H 
  H63      1.0000 0.62083  0.33458  0.88303  Biso   1.000  H 
  H64      1.0000 0.69346  0.19397  0.09479  Biso   1.000  H 
  H65      1.0000 0.08608  0.26028  0.43582  Biso   1.000  H 
  H66      1.0000 0.29689  0.70564  0.90187  Biso   1.000  H 
  H67      1.0000 0.96995  0.69502  0.25779  Biso   1.000  H 
  H68      1.0000 0.80668  0.96693  0.43422  Biso   1.000  H 
  H69      1.0000 0.71928  0.83292  0.18852  Biso   1.000  H 
  H70      1.0000 0.36339  0.97437  0.91981  Biso   1.000  H 
  H71      1.0000 0.20116  0.77636  0.66012  Biso   1.000  H 
  H72      1.0000 0.39530  0.54994  0.79289  Biso   1.000  H 
  Zn1      1.0000 0.98890  0.53529  0.33001  Biso   1.000  Zn
  Zn2      1.0000 0.28498  0.05821  0.55296  Biso   1.000  Zn
  Zn3      1.0000 0.54591  0.28789  0.04594  Biso   1.000  Zn
  Zn4      1.0000 0.51916  0.04215  0.81702  Biso   1.000  Zn
  Zn5      1.0000 0.01854  0.29785  0.59345  Biso   1.000  Zn
  Zn6      1.0000 0.79348  0.55459  0.03156  Biso   1.000  Zn
  Zn7      1.0000 0.05372  0.54736  0.80456  Biso   1.000  Zn
  Zn8      1.0000 0.57188  0.81476  0.07119  Biso   1.000  Zn
  Zn9      1.0000 0.55710  0.05435  0.32556  Biso   1.000  Zn
  Zn10     1.0000 0.03008  0.80205  0.56488  Biso   1.000  Zn
  Zn11     1.0000 0.78953  0.06060  0.60016  Biso   1.000  Zn
  Zn12     1.0000 0.36807  0.54984  0.98228  Biso   1.000  Zn
  C1       1.0000 0.64688  0.03940  0.70479  Biso   1.000  C 
  C2       1.0000 0.67216  0.67751  0.02971  Biso   1.000  C 
  C3       1.0000 0.03842  0.67021  0.67508  Biso   1.000  C 
  C4       1.0000 0.99552  0.42283  0.46887  Biso   1.000  C 
  C5       1.0000 0.45283  0.69135  0.03367  Biso   1.000  C 
  C6       1.0000 0.41340  0.09147  0.43151  Biso   1.000  C 
  C7       1.0000 0.67882  0.04027  0.44896  Biso   1.000  C 
  C8       1.0000 0.67254  0.42599  0.02975  Biso   1.000  C 
  C9       1.0000 0.00807  0.66489  0.45715  Biso   1.000  C 
  C10      1.0000 0.04636  0.44131  0.67766  Biso   1.000  C 
  C11      1.0000 0.41780  0.39192  0.00603  Biso   1.000  C 
  C12      1.0000 0.40523  0.05976  0.67588  Biso   1.000  C 
  C13      1.0000 0.19800  0.54491  0.91087  Biso   1.000  C 
  C14      1.0000 0.14857  0.16054  0.57911  Biso   1.000  C 
  C15      1.0000 0.53066  0.17950  0.18529  Biso   1.000  C 
  C16      1.0000 0.55233  0.16531  0.93471  Biso   1.000  C 
  C17      1.0000 0.89975  0.18727  0.59904  Biso   1.000  C 
  C18      1.0000 0.93568  0.54445  0.92970  Biso   1.000  C 
  C19      1.0000 0.52660  0.52980  0.92722  Biso   1.000  C 
  C20      1.0000 0.16192  0.93155  0.54642  Biso   1.000  C 
  C21      1.0000 0.55089  0.95025  0.95218  Biso   1.000  C 
  C22      1.0000 0.55759  0.92279  0.21148  Biso   1.000  C 
  C23      1.0000 0.92588  0.94582  0.58480  Biso   1.000  C 
  C24      1.0000 0.91158  0.53445  0.17603  Biso   1.000  C 
  C25      1.0000 0.66818  0.93679  0.78140  Biso   1.000  C 
  C26      1.0000 0.78511  0.72231  0.98968  Biso   1.000  C 
  C27      1.0000 0.93637  0.74456  0.69553  Biso   1.000  C 
  C28      1.0000 0.93459  0.36727  0.36628  Biso   1.000  C 
  C29      1.0000 0.46639  0.69546  0.16590  Biso   1.000  C 
  C30      1.0000 0.40761  0.98583  0.36080  Biso   1.000  C 
  C31      1.0000 0.61976  0.15166  0.44834  Biso   1.000  C 
  C32      1.0000 0.69935  0.46623  0.14646  Biso   1.000  C 
  C33      1.0000 0.09770  0.74182  0.40952  Biso   1.000  C 
  C34      1.0000 0.15691  0.37404  0.67118  Biso   1.000  C 
  C35      1.0000 0.40214  0.34808  0.12649  Biso   1.000  C 
  C36      1.0000 0.31170  0.13750  0.71515  Biso   1.000  C 
  C37      1.0000 0.34471  0.98529  0.41169  Biso   1.000  C 
  C38      1.0000 0.41766  0.63398  0.14577  Biso   1.000  C 
  C39      1.0000 0.94468  0.31266  0.42553  Biso   1.000  C 
  C40      1.0000 0.94128  0.68743  0.75386  Biso   1.000  C 
  C41      1.0000 0.73426  0.78663  0.99918  Biso   1.000  C 
  C42      1.0000 0.73545  0.95050  0.73682  Biso   1.000  C 
  C43      1.0000 0.36404  0.12750  0.77483  Biso   1.000  C 
  C44      1.0000 0.35937  0.41700  0.11468  Biso   1.000  C 
  C45      1.0000 0.16782  0.43726  0.72160  Biso   1.000  C 
  C46      1.0000 0.08940  0.67745  0.35949  Biso   1.000  C 
  C47      1.0000 0.64895  0.40363  0.15240  Biso   1.000  C 
  C48      1.0000 0.68042  0.15498  0.50552  Biso   1.000  C 
  C49      1.0000 0.17343  0.66284  0.87417  Biso   1.000  C 
  C50      1.0000 0.18858  0.17551  0.45991  Biso   1.000  C 
  C51      1.0000 0.64854  0.12771  0.20292  Biso   1.000  C 
  C52      1.0000 0.58038  0.22025  0.82210  Biso   1.000  C 
  C53      1.0000 0.87632  0.27101  0.69657  Biso   1.000  C 
  C54      1.0000 0.83827  0.47032  0.88443  Biso   1.000  C 
  C55      1.0000 0.52358  0.51333  0.80179  Biso   1.000  C 
  C56      1.0000 0.25775  0.89205  0.62369  Biso   1.000  C 
  C57      1.0000 0.44025  0.90029  0.99342  Biso   1.000  C 
  C58      1.0000 0.66951  0.92961  0.26596  Biso   1.000  C 
  C59      1.0000 0.91309  0.89132  0.47120  Biso   1.000  C 
  C60      1.0000 0.89277  0.65933  0.15432  Biso   1.000  C 
  C61      1.0000 0.90013  0.46692  0.83311  Biso   1.000  C 
  C62      1.0000 0.82014  0.21087  0.69948  Biso   1.000  C 
  C63      1.0000 0.60212  0.27106  0.88241  Biso   1.000  C 
  C64      1.0000 0.64913  0.17542  0.13574  Biso   1.000  C 
  C65      1.0000 0.12173  0.22056  0.47207  Biso   1.000  C 
  C66      1.0000 0.25160  0.66299  0.90693  Biso   1.000  C 
  C67      1.0000 0.94640  0.65180  0.21642  Biso   1.000  C 
  C68      1.0000 0.85676  0.95058  0.47571  Biso   1.000  C 
  C69      1.0000 0.67197  0.86828  0.21020  Biso   1.000  C 
  C70      1.0000 0.42227  0.95877  0.94200  Biso   1.000  C 
  C71      1.0000 0.20173  0.83242  0.62613  Biso   1.000  C 
  C72      1.0000 0.44992  0.53803  0.82387  Biso   1.000  C 
