data_image0
_cell_length_a       17.014
_cell_length_b       17.014
_cell_length_c       17.014
_cell_angle_alpha    90
_cell_angle_beta     90
_cell_angle_gamma    90

_symmetry_space_group_name_H-M    "P 1"
_symmetry_int_tables_number       1

loop_
  _symmetry_equiv_pos_as_xyz
  'x, y, z'

loop_
  _atom_site_label
  _atom_site_occupancy
  _atom_site_fract_x
  _atom_site_fract_y
  _atom_site_fract_z
  _atom_site_thermal_displace_type
  _atom_site_B_iso_or_equiv
  _atom_site_type_symbol
  H1       1.0000 0.50494  0.46551  0.06287  Biso   1.000  H 
  H2       1.0000 0.05903  0.47615  0.45793  Biso   1.000  H 
  H3       1.0000 0.45165  0.98023  0.47733  Biso   1.000  H 
  H4       1.0000 0.70878  0.42704  0.98254  Biso   1.000  H 
  H5       1.0000 0.67788  0.14184  0.69254  Biso   1.000  H 
  H6       1.0000 0.97579  0.39720  0.70576  Biso   1.000  H 
  H7       1.0000 0.44958  0.61106  0.98788  Biso   1.000  H 
  H8       1.0000 0.07670  0.63140  0.63795  Biso   1.000  H 
  H9       1.0000 0.42477  0.03036  0.66612  Biso   1.000  H 
  H10      1.0000 0.63115  0.64653  0.08119  Biso   1.000  H 
  H11      1.0000 0.64257  0.05809  0.47803  Biso   1.000  H 
  H12      1.0000 0.14867  0.67815  0.43887  Biso   1.000  H 
  H13      1.0000 0.97336  0.96808  0.52092  Biso   1.000  H 
  H14      1.0000 0.58216  0.96774  0.96223  Biso   1.000  H 
  H15      1.0000 0.98729  0.57676  0.96352  Biso   1.000  H 
  H16      1.0000 0.19761  0.92739  0.63382  Biso   1.000  H 
  H17      1.0000 0.13294  0.58911  0.13988  Biso   1.000  H 
  H18      1.0000 0.54698  0.98265  0.13398  Biso   1.000  H 
  H19      1.0000 0.97145  0.13000  0.58967  Biso   1.000  H 
  H20      1.0000 0.51840  0.14360  0.15757  Biso   1.000  H 
  H21      1.0000 0.91301  0.50672  0.14754  Biso   1.000  H 
  H22      1.0000 0.19341  0.21163  0.60701  Biso   1.000  H 
  H23      1.0000 0.23041  0.60605  0.91179  Biso   1.000  H 
  H24      1.0000 0.49770  0.21151  0.94462  Biso   1.000  H 
  N1       1.0000 0.61262  0.03602  0.73519  Biso   1.000  N 
  N2       1.0000 0.72595  0.66544  0.99421  Biso   1.000  N 
  N3       1.0000 0.11168  0.75077  0.66422  Biso   1.000  N 
  N4       1.0000 0.03746  0.65283  0.38235  Biso   1.000  N 
  N5       1.0000 0.42885  0.72698  0.04837  Biso   1.000  N 
  N6       1.0000 0.39665  0.09221  0.46833  Biso   1.000  N 
  N7       1.0000 0.67046  0.99184  0.37415  Biso   1.000  N 
  N8       1.0000 0.75835  0.48699  0.08110  Biso   1.000  N 
  N9       1.0000 0.99067  0.37043  0.43746  Biso   1.000  N 
  N10      1.0000 0.08008  0.46933  0.70531  Biso   1.000  N 
  N11      1.0000 0.48850  0.34285  0.09385  Biso   1.000  N 
  N12      1.0000 0.34677  0.12700  0.65172  Biso   1.000  N 
  N13      1.0000 0.48885  0.05696  0.38071  Biso   1.000  N 
  N14      1.0000 0.35115  0.62407  0.06621  Biso   1.000  N 
  N15      1.0000 0.04941  0.73016  0.48621  Biso   1.000  N 
  N16      1.0000 0.09982  0.65810  0.75859  Biso   1.000  N 
  N17      1.0000 0.60974  0.73475  0.99007  Biso   1.000  N 
  N18      1.0000 0.70792  0.02096  0.64737  Biso   1.000  N 
  N19      1.0000 0.45282  0.13114  0.73179  Biso   1.000  N 
  N20      1.0000 0.38439  0.42743  0.08559  Biso   1.000  N 
  N21      1.0000 0.06326  0.37634  0.60824  Biso   1.000  N 
  N22      1.0000 0.98514  0.47080  0.34916  Biso   1.000  N 
  N23      1.0000 0.66806  0.39199  0.09738  Biso   1.000  N 
  N24      1.0000 0.75724  0.99391  0.47654  Biso   1.000  N 
  N25      1.0000 0.13915  0.54011  0.25725  Biso   1.000  N 
  N26      1.0000 0.20720  0.13748  0.50884  Biso   1.000  N 
  N27      1.0000 0.62736  0.20949  0.14985  Biso   1.000  N 
  N28      1.0000 0.59254  0.16363  0.87583  Biso   1.000  N 
  N29      1.0000 0.92552  0.24402  0.56193  Biso   1.000  N 
  N30      1.0000 0.86513  0.56037  0.93279  Biso   1.000  N 
  N31      1.0000 0.14403  0.51371  0.88237  Biso   1.000  N 
  N32      1.0000 0.27111  0.96361  0.53575  Biso   1.000  N 
  N33      1.0000 0.49144  0.88376  0.95019  Biso   1.000  N 
  N34      1.0000 0.54458  0.92459  0.24759  Biso   1.000  N 
  N35      1.0000 0.99100  0.87701  0.60537  Biso   1.000  N 
  N36      1.0000 0.87919  0.62049  0.10423  Biso   1.000  N 
  N37      1.0000 0.95878  0.56272  0.84091  Biso   1.000  N 
  N38      1.0000 0.84151  0.14197  0.57267  Biso   1.000  N 
  N39      1.0000 0.61456  0.25959  0.96760  Biso   1.000  N 
  N40      1.0000 0.60821  0.11301  0.23900  Biso   1.000  N 
  N41      1.0000 0.10919  0.22499  0.51377  Biso   1.000  N 
  N42      1.0000 0.23775  0.51885  0.16877  Biso   1.000  N 
  N43      1.0000 0.96102  0.60409  0.20832  Biso   1.000  N 
  N44      1.0000 0.88109  0.94993  0.60943  Biso   1.000  N 
  N45      1.0000 0.53757  0.85431  0.13503  Biso   1.000  N 
  N46      1.0000 0.49470  0.99214  0.87140  Biso   1.000  N 
  N47      1.0000 0.17286  0.87230  0.52618  Biso   1.000  N 
  N48      1.0000 0.22591  0.50039  0.98756  Biso   1.000  N 
  H25      1.0000 0.58000  0.91639  0.74842  Biso   1.000  H 
  H26      1.0000 0.77401  0.72455  0.88902  Biso   1.000  H 
  H27      1.0000 0.13650  0.84764  0.74375  Biso   1.000  H 
  H28      1.0000 0.91406  0.66164  0.36778  Biso   1.000  H 
  H29      1.0000 0.36797  0.80434  0.12786  Biso   1.000  H 
  H30      1.0000 0.36439  0.21066  0.42102  Biso   1.000  H 
  H31      1.0000 0.74717  0.92112  0.29817  Biso   1.000  H 
  H32      1.0000 0.77233  0.51710  0.19994  Biso   1.000  H 
  H33      1.0000 0.90546  0.29461  0.37421  Biso   1.000  H 
  H34      1.0000 0.18827  0.51892  0.65097  Biso   1.000  H 
  H35      1.0000 0.41378  0.24007  0.12851  Biso   1.000  H 
  H36      1.0000 0.30582  0.25125  0.68015  Biso   1.000  H 
  H37      1.0000 0.48813  0.17611  0.32636  Biso   1.000  H 
  H38      1.0000 0.27326  0.67378  0.15097  Biso   1.000  H 
  H39      1.0000 0.92424  0.75216  0.50944  Biso   1.000  H 
  H40      1.0000 0.12114  0.74654  0.85928  Biso   1.000  H 
  H41      1.0000 0.63603  0.80555  0.89004  Biso   1.000  H 
  H42      1.0000 0.69916  0.89332  0.62624  Biso   1.000  H 
  H43      1.0000 0.43888  0.24312  0.77944  Biso   1.000  H 
  H44      1.0000 0.29499  0.34487  0.12241  Biso   1.000  H 
  H45      1.0000 0.16086  0.41081  0.53664  Biso   1.000  H 
  H46      1.0000 0.89206  0.42794  0.27835  Biso   1.000  H 
  H47      1.0000 0.66948  0.38954  0.22596  Biso   1.000  H 
  H48      1.0000 0.85248  0.92986  0.42007  Biso   1.000  H 
  H49      1.0000 0.19734  0.47723  0.35812  Biso   1.000  H 
  H50      1.0000 0.16058  0.06305  0.41726  Biso   1.000  H 
  H51      1.0000 0.73997  0.25351  0.18307  Biso   1.000  H 
  H52      1.0000 0.70939  0.15264  0.83035  Biso   1.000  H 
  H53      1.0000 0.84728  0.32534  0.52102  Biso   1.000  H 
  H54      1.0000 0.76287  0.54768  0.85265  Biso   1.000  H 
  H55      1.0000 0.09166  0.40183  0.89018  Biso   1.000  H 
  H56      1.0000 0.31792  0.93785  0.41729  Biso   1.000  H 
  H57      1.0000 0.37312  0.84061  0.91816  Biso   1.000  H 
  H58      1.0000 0.53721  0.82481  0.32798  Biso   1.000  H 
  H59      1.0000 0.97391  0.80413  0.70576  Biso   1.000  H 
  H60      1.0000 0.88166  0.74445  0.09488  Biso   1.000  H 
  H61      1.0000 0.88989  0.53688  0.73729  Biso   1.000  H 
  H62      1.0000 0.73409  0.20124  0.53009  Biso   1.000  H 
  H63      1.0000 0.73945  0.27003  0.94877  Biso   1.000  H 
  H64      1.0000 0.72295  0.10847  0.28561  Biso   1.000  H 
  H65      1.0000 0.03597  0.17428  0.41476  Biso   1.000  H 
  H66      1.0000 0.31184  0.44212  0.24665  Biso   1.000  H 
  H67      1.0000 0.98628  0.73447  0.22757  Biso   1.000  H 
  H68      1.0000 0.83498  0.89770  0.71218  Biso   1.000  H 
  H69      1.0000 0.51407  0.73907  0.18929  Biso   1.000  H 
  H70      1.0000 0.38141  0.97401  0.81737  Biso   1.000  H 
  H71      1.0000 0.19632  0.83499  0.40993  Biso   1.000  H 
  H72      1.0000 0.18065  0.37992  0.02242  Biso   1.000  H 
  Zn1      1.0000 0.03853  0.56757  0.30089  Biso   1.000  Zn
  Zn2      1.0000 0.30476  0.08063  0.54673  Biso   1.000  Zn
  Zn3      1.0000 0.59701  0.29878  0.08164  Biso   1.000  Zn
  Zn4      1.0000 0.53619  0.08988  0.80642  Biso   1.000  Zn
  Zn5      1.0000 0.01868  0.30256  0.52632  Biso   1.000  Zn
  Zn6      1.0000 0.80682  0.58465  0.02544  Biso   1.000  Zn
  Zn7      1.0000 0.07483  0.54983  0.79888  Biso   1.000  Zn
  Zn8      1.0000 0.51572  0.80138  0.02940  Biso   1.000  Zn
  Zn9      1.0000 0.57788  0.01857  0.31242  Biso   1.000  Zn
  Zn10     1.0000 0.08507  0.80837  0.56721  Biso   1.000  Zn
  Zn11     1.0000 0.80590  0.03419  0.57613  Biso   1.000  Zn
  Zn12     1.0000 0.30818  0.51524  0.07169  Biso   1.000  Zn
  C1       1.0000 0.66735  0.07354  0.68777  Biso   1.000  C 
  C2       1.0000 0.65455  0.68026  0.02779  Biso   1.000  C 
  C3       1.0000 0.09867  0.67643  0.68114  Biso   1.000  C 
  C4       1.0000 0.08664  0.68651  0.43296  Biso   1.000  C 
  C5       1.0000 0.41655  0.64825  0.03104  Biso   1.000  C 
  C6       1.0000 0.44598  0.03572  0.44703  Biso   1.000  C 
  C7       1.0000 0.68433  0.01454  0.45077  Biso   1.000  C 
  C8       1.0000 0.70992  0.43701  0.04352  Biso   1.000  C 
  C9       1.0000 0.01613  0.44434  0.41839  Biso   1.000  C 
  C10      1.0000 0.03241  0.40810  0.67337  Biso   1.000  C 
  C11      1.0000 0.46653  0.41469  0.07915  Biso   1.000  C 
  C12      1.0000 0.40925  0.08739  0.68572  Biso   1.000  C 
  C13      1.0000 0.16916  0.55287  0.18446  Biso   1.000  C 
  C14      1.0000 0.17447  0.19777  0.54669  Biso   1.000  C 
  C15      1.0000 0.57738  0.15271  0.17943  Biso   1.000  C 
  C16      1.0000 0.56098  0.20964  0.92980  Biso   1.000  C 
  C17      1.0000 0.91935  0.16443  0.57497  Biso   1.000  C 
  C18      1.0000 0.94188  0.57217  0.91761  Biso   1.000  C 
  C19      1.0000 0.20113  0.54686  0.92726  Biso   1.000  C 
  C20      1.0000 0.21096  0.92530  0.57110  Biso   1.000  C 
  C21      1.0000 0.53310  0.94795  0.92496  Biso   1.000  C 
  C22      1.0000 0.54539  0.92725  0.16738  Biso   1.000  C 
  C23      1.0000 0.94799  0.93418  0.56961  Biso   1.000  C 
  C24      1.0000 0.91561  0.57041  0.15424  Biso   1.000  C 
  C25      1.0000 0.61695  0.95744  0.71784  Biso   1.000  C 
  C26      1.0000 0.72684  0.72045  0.93280  Biso   1.000  C 
  C27      1.0000 0.12044  0.78656  0.73563  Biso   1.000  C 
  C28      1.0000 0.96269  0.67807  0.40539  Biso   1.000  C 
  C29      1.0000 0.36819  0.75107  0.09391  Biso   1.000  C 
  C30      1.0000 0.39792  0.15461  0.41463  Biso   1.000  C 
  C31      1.0000 0.73552  0.95157  0.35279  Biso   1.000  C 
  C32      1.0000 0.74429  0.47730  0.15902  Biso   1.000  C 
  C33      1.0000 0.93799  0.34954  0.37810  Biso   1.000  C 
  C34      1.0000 0.14343  0.47463  0.65260  Biso   1.000  C 
  C35      1.0000 0.41814  0.30074  0.10709  Biso   1.000  C 
  C36      1.0000 0.35063  0.20452  0.68538  Biso   1.000  C 
  C37      1.0000 0.46273  0.13577  0.36910  Biso   1.000  C 
  C38      1.0000 0.32116  0.68378  0.11175  Biso   1.000  C 
  C39      1.0000 0.97168  0.72400  0.47140  Biso   1.000  C 
  C40      1.0000 0.11502  0.72999  0.79517  Biso   1.000  C 
  C41      1.0000 0.65704  0.76154  0.93130  Biso   1.000  C 
  C42      1.0000 0.67625  0.94641  0.65956  Biso   1.000  C 
  C43      1.0000 0.41939  0.20625  0.72998  Biso   1.000  C 
  C44      1.0000 0.35456  0.35423  0.10388  Biso   1.000  C 
  C45      1.0000 0.12934  0.41975  0.59274  Biso   1.000  C 
  C46      1.0000 0.93421  0.41148  0.32328  Biso   1.000  C 
  C47      1.0000 0.69040  0.41450  0.17086  Biso   1.000  C 
  C48      1.0000 0.79056  0.95150  0.41542  Biso   1.000  C 
  C49      1.0000 0.19613  0.49120  0.29413  Biso   1.000  C 
  C50      1.0000 0.15454  0.11760  0.45159  Biso   1.000  C 
  C51      1.0000 0.69421  0.20353  0.19361  Biso   1.000  C 
  C52      1.0000 0.66974  0.18305  0.87367  Biso   1.000  C 
  C53      1.0000 0.85092  0.26813  0.54456  Biso   1.000  C 
  C54      1.0000 0.82929  0.54818  0.85738  Biso   1.000  C 
  C55      1.0000 0.13010  0.44016  0.91790  Biso   1.000  C 
  C56      1.0000 0.27516  0.92610  0.45975  Biso   1.000  C 
  C57      1.0000 0.42493  0.88175  0.90520  Biso   1.000  C 
  C58      1.0000 0.53484  0.84454  0.26723  Biso   1.000  C 
  C59      1.0000 0.95088  0.85195  0.67177  Biso   1.000  C 
  C60      1.0000 0.90485  0.69276  0.12947  Biso   1.000  C 
  C61      1.0000 0.88898  0.54894  0.79895  Biso   1.000  C 
  C62      1.0000 0.79718  0.20621  0.55009  Biso   1.000  C 
  C63      1.0000 0.68532  0.24479  0.92511  Biso   1.000  C 
  C64      1.0000 0.68403  0.13992  0.24567  Biso   1.000  C 
  C65      1.0000 0.09310  0.17256  0.45104  Biso   1.000  C 
  C66      1.0000 0.25385  0.47627  0.23997  Biso   1.000  C 
  C67      1.0000 0.95255  0.68706  0.19603  Biso   1.000  C 
  C68      1.0000 0.88282  0.89728  0.67324  Biso   1.000  C 
  C69      1.0000 0.52954  0.80291  0.19747  Biso   1.000  C 
  C70      1.0000 0.42337  0.95056  0.85960  Biso   1.000  C 
  C71      1.0000 0.21855  0.86693  0.45882  Biso   1.000  C 
  C72      1.0000 0.17898  0.43304  0.98146  Biso   1.000  C 
