data_image0
_cell_length_a       17.014
_cell_length_b       17.014
_cell_length_c       17.014
_cell_angle_alpha    90
_cell_angle_beta     90
_cell_angle_gamma    90

_symmetry_space_group_name_H-M    "P 1"
_symmetry_int_tables_number       1

loop_
  _symmetry_equiv_pos_as_xyz
  'x, y, z'

loop_
  _atom_site_label
  _atom_site_occupancy
  _atom_site_fract_x
  _atom_site_fract_y
  _atom_site_fract_z
  _atom_site_thermal_displace_type
  _atom_site_B_iso_or_equiv
  _atom_site_type_symbol
  H1       1.0000 0.49280  0.38976  0.91539  Biso   1.000  H 
  H2       1.0000 0.88473  0.70023  0.58155  Biso   1.000  H 
  H3       1.0000 0.50778  0.89385  0.39164  Biso   1.000  H 
  H4       1.0000 0.71236  0.42501  0.14229  Biso   1.000  H 
  H5       1.0000 0.69052  0.95120  0.71699  Biso   1.000  H 
  H6       1.0000 0.92584  0.52460  0.86555  Biso   1.000  H 
  H7       1.0000 0.59602  0.64216  0.92002  Biso   1.000  H 
  H8       1.0000 0.07298  0.62448  0.70650  Biso   1.000  H 
  H9       1.0000 0.34959  0.73145  0.60922  Biso   1.000  H 
  H10      1.0000 0.75272  0.68909  0.11587  Biso   1.000  H 
  H11      1.0000 0.64538  0.88840  0.37899  Biso   1.000  H 
  H12      1.0000 0.78456  0.79124  0.42681  Biso   1.000  H 
  H13      1.0000 0.87946  0.81253  0.57430  Biso   1.000  H 
  H14      1.0000 0.58599  0.96472  0.92163  Biso   1.000  H 
  H15      1.0000 0.98889  0.62979  0.00023  Biso   1.000  H 
  H16      1.0000 0.23733  0.80621  0.62487  Biso   1.000  H 
  H17      1.0000 0.29817  0.60382  0.89543  Biso   1.000  H 
  H18      1.0000 0.65509  0.95631  0.09127  Biso   1.000  H 
  H19      1.0000 0.88056  0.52770  0.60690  Biso   1.000  H 
  H20      1.0000 0.53471  0.12986  0.10080  Biso   1.000  H 
  H21      1.0000 0.91438  0.57349  0.28867  Biso   1.000  H 
  H22      1.0000 0.66085  0.26978  0.75556  Biso   1.000  H 
  H23      1.0000 0.61794  0.41908  0.84989  Biso   1.000  H 
  H24      1.0000 0.66371  0.18528  0.98045  Biso   1.000  H 
  N1       1.0000 0.62000  0.05955  0.70371  Biso   1.000  N 
  N2       1.0000 0.80937  0.61375  0.02880  Biso   1.000  N 
  N3       1.0000 0.06340  0.74408  0.73997  Biso   1.000  N 
  N4       1.0000 0.74320  0.68858  0.49314  Biso   1.000  N 
  N5       1.0000 0.53875  0.75497  0.93968  Biso   1.000  N 
  N6       1.0000 0.47712  0.00831  0.33805  Biso   1.000  N 
  N7       1.0000 0.65919  0.00984  0.32815  Biso   1.000  N 
  N8       1.0000 0.81633  0.41576  0.06608  Biso   1.000  N 
  N9       1.0000 0.00980  0.71997  0.55713  Biso   1.000  N 
  N10      1.0000 0.90403  0.43744  0.77460  Biso   1.000  N 
  N11      1.0000 0.51190  0.40712  0.04378  Biso   1.000  N 
  N12      1.0000 0.41704  0.83324  0.59251  Biso   1.000  N 
  N13      1.0000 0.39419  0.95002  0.42315  Biso   1.000  N 
  N14      1.0000 0.49198  0.66864  0.85277  Biso   1.000  N 
  N15      1.0000 0.71592  0.81327  0.52621  Biso   1.000  N 
  N16      1.0000 0.08772  0.64766  0.82898  Biso   1.000  N 
  N17      1.0000 0.71674  0.70734  0.99299  Biso   1.000  N 
  N18      1.0000 0.66418  0.98695  0.59875  Biso   1.000  N 
  N19      1.0000 0.45678  0.74472  0.68493  Biso   1.000  N 
  N20      1.0000 0.48796  0.50824  0.95682  Biso   1.000  N 
  N21      1.0000 0.02726  0.47908  0.80012  Biso   1.000  N 
  N22      1.0000 0.92988  0.64603  0.47699  Biso   1.000  N 
  N23      1.0000 0.70381  0.34272  0.04789  Biso   1.000  N 
  N24      1.0000 0.73739  0.97083  0.42894  Biso   1.000  N 
  N25      1.0000 0.22762  0.50504  0.84315  Biso   1.000  N 
  N26      1.0000 0.73908  0.17188  0.78983  Biso   1.000  N 
  N27      1.0000 0.56014  0.13702  0.22782  Biso   1.000  N 
  N28      1.0000 0.58200  0.14357  0.88886  Biso   1.000  N 
  N29      1.0000 0.80058  0.51246  0.50879  Biso   1.000  N 
  N30      1.0000 0.97741  0.52167  0.07064  Biso   1.000  N 
  N31      1.0000 0.69579  0.47998  0.76303  Biso   1.000  N 
  N32      1.0000 0.24411  0.87656  0.51472  Biso   1.000  N 
  N33      1.0000 0.67664  0.87610  0.92135  Biso   1.000  N 
  N34      1.0000 0.56227  0.93443  0.17942  Biso   1.000  N 
  N35      1.0000 0.95592  0.88619  0.63726  Biso   1.000  N 
  N36      1.0000 0.81618  0.55772  0.20897  Biso   1.000  N 
  N37      1.0000 0.06590  0.52462  0.96956  Biso   1.000  N 
  N38      1.0000 0.79403  0.43270  0.61901  Biso   1.000  N 
  N39      1.0000 0.55112  0.23936  0.97132  Biso   1.000  N 
  N40      1.0000 0.55751  0.24637  0.15123  Biso   1.000  N 
  N41      1.0000 0.78227  0.29895  0.78289  Biso   1.000  N 
  N42      1.0000 0.36026  0.51544  0.82301  Biso   1.000  N 
  N43      1.0000 0.79482  0.59330  0.33513  Biso   1.000  N 
  N44      1.0000 0.84282  0.93362  0.59496  Biso   1.000  N 
  N45      1.0000 0.60704  0.84047  0.09724  Biso   1.000  N 
  N46      1.0000 0.69425  0.99261  0.85982  Biso   1.000  N 
  N47      1.0000 0.12930  0.84289  0.57729  Biso   1.000  N 
  N48      1.0000 0.56817  0.51788  0.78916  Biso   1.000  N 
  H25      1.0000 0.57493  0.15733  0.62529  Biso   1.000  H 
  H26      1.0000 0.83655  0.57187  0.90920  Biso   1.000  H 
  H27      1.0000 0.04960  0.83657  0.82945  Biso   1.000  H 
  H28      1.0000 0.67111  0.63365  0.58639  Biso   1.000  H 
  H29      1.0000 0.44055  0.83029  0.93570  Biso   1.000  H 
  H30      1.0000 0.40660  0.10770  0.30753  Biso   1.000  H 
  H31      1.0000 0.72696  0.11766  0.30249  Biso   1.000  H 
  H32      1.0000 0.87956  0.37061  0.96276  Biso   1.000  H 
  H33      1.0000 0.11922  0.69474  0.49779  Biso   1.000  H 
  H34      1.0000 0.93461  0.36854  0.67664  Biso   1.000  H 
  H35      1.0000 0.51567  0.48020  0.14605  Biso   1.000  H 
  H36      1.0000 0.50102  0.92637  0.61963  Biso   1.000  H 
  H37      1.0000 0.30583  0.04121  0.42003  Biso   1.000  H 
  H38      1.0000 0.39521  0.73292  0.80659  Biso   1.000  H 
  H39      1.0000 0.64809  0.78698  0.63313  Biso   1.000  H 
  H40      1.0000 0.08132  0.71464  0.93434  Biso   1.000  H 
  H41      1.0000 0.72541  0.68461  0.86608  Biso   1.000  H 
  H42      1.0000 0.61553  0.05183  0.50590  Biso   1.000  H 
  H43      1.0000 0.56598  0.81262  0.71659  Biso   1.000  H 
  H44      1.0000 0.47095  0.60008  0.05148  Biso   1.000  H 
  H45      1.0000 0.08450  0.40462  0.71566  Biso   1.000  H 
  H46      1.0000 0.02323  0.59697  0.40379  Biso   1.000  H 
  H47      1.0000 0.74112  0.28721  0.93994  Biso   1.000  H 
  H48      1.0000 0.81260  0.07273  0.42597  Biso   1.000  H 
  H49      1.0000 0.20393  0.40090  0.77888  Biso   1.000  H 
  H50      1.0000 0.85055  0.12365  0.83548  Biso   1.000  H 
  H51      1.0000 0.58473  0.19645  0.34104  Biso   1.000  H 
  H52      1.0000 0.46731  0.13044  0.83514  Biso   1.000  H 
  H53      1.0000 0.69547  0.46716  0.45391  Biso   1.000  H 
  H54      1.0000 0.01265  0.40366  0.10969  Biso   1.000  H 
  H55      1.0000 0.71268  0.58370  0.68617  Biso   1.000  H 
  H56      1.0000 0.18913  0.93694  0.41623  Biso   1.000  H 
  H57      1.0000 0.79012  0.82417  0.89912  Biso   1.000  H 
  H58      1.0000 0.47216  0.86172  0.23960  Biso   1.000  H 
  H59      1.0000 0.00821  0.99487  0.68871  Biso   1.000  H 
  H60      1.0000 0.69846  0.55187  0.16785  Biso   1.000  H 
  H61      1.0000 0.11483  0.40757  0.98645  Biso   1.000  H 
  H62      1.0000 0.69057  0.36360  0.58524  Biso   1.000  H 
  H63      1.0000 0.42570  0.24813  0.94429  Biso   1.000  H 
  H64      1.0000 0.59537  0.32962  0.24258  Biso   1.000  H 
  H65      1.0000 0.90459  0.27077  0.80625  Biso   1.000  H 
  H66      1.0000 0.37117  0.40754  0.75090  Biso   1.000  H 
  H67      1.0000 0.66754  0.60396  0.32536  Biso   1.000  H 
  H68      1.0000 0.86447  0.05709  0.63894  Biso   1.000  H 
  H69      1.0000 0.52739  0.74624  0.13629  Biso   1.000  H 
  H70      1.0000 0.80800  0.96574  0.81403  Biso   1.000  H 
  H71      1.0000 0.04792  0.89287  0.49270  Biso   1.000  H 
  H72      1.0000 0.57052  0.62032  0.71519  Biso   1.000  H 
  Zn1      1.0000 0.81880  0.60874  0.44871  Biso   1.000  Zn
  Zn2      1.0000 0.35817  0.88606  0.50753  Biso   1.000  Zn
  Zn3      1.0000 0.58427  0.31437  0.05846  Biso   1.000  Zn
  Zn4      1.0000 0.65123  0.09186  0.81398  Biso   1.000  Zn
  Zn5      1.0000 0.79180  0.41244  0.73953  Biso   1.000  Zn
  Zn6      1.0000 0.86321  0.53404  0.10253  Biso   1.000  Zn
  Zn7      1.0000 0.11370  0.53681  0.86367  Biso   1.000  Zn
  Zn8      1.0000 0.63438  0.79323  0.99225  Biso   1.000  Zn
  Zn9      1.0000 0.56312  0.02279  0.25511  Biso   1.000  Zn
  Zn10     1.0000 0.04487  0.79708  0.64250  Biso   1.000  Zn
  Zn11     1.0000 0.74422  0.93206  0.53671  Biso   1.000  Zn
  Zn12     1.0000 0.47568  0.54710  0.84585  Biso   1.000  Zn
  C1       1.0000 0.65834  0.99096  0.67816  Biso   1.000  C 
  C2       1.0000 0.75801  0.67241  0.05344  Biso   1.000  C 
  C3       1.0000 0.08106  0.66822  0.75232  Biso   1.000  C 
  C4       1.0000 0.74795  0.76515  0.47315  Biso   1.000  C 
  C5       1.0000 0.54902  0.68373  0.90599  Biso   1.000  C 
  C6       1.0000 0.46496  0.94300  0.38250  Biso   1.000  C 
  C7       1.0000 0.67415  0.95051  0.37982  Biso   1.000  C 
  C8       1.0000 0.74198  0.39830  0.09050  Biso   1.000  C 
  C9       1.0000 0.93729  0.68992  0.54378  Biso   1.000  C 
  C10      1.0000 0.94922  0.48860  0.81704  Biso   1.000  C 
  C11      1.0000 0.49660  0.42926  0.96519  Biso   1.000  C 
  C12      1.0000 0.40271  0.76284  0.62901  Biso   1.000  C 
  C13      1.0000 0.29538  0.54863  0.85818  Biso   1.000  C 
  C14      1.0000 0.72172  0.24922  0.76907  Biso   1.000  C 
  C15      1.0000 0.54885  0.16743  0.15139  Biso   1.000  C 
  C16      1.0000 0.60794  0.18698  0.94932  Biso   1.000  C 
  C17      1.0000 0.83084  0.49366  0.58317  Biso   1.000  C 
  C18      1.0000 0.01147  0.56918  0.01081  Biso   1.000  C 
  C19      1.0000 0.62656  0.46460  0.80492  Biso   1.000  C 
  C20      1.0000 0.20708  0.83994  0.57967  Biso   1.000  C 
  C21      1.0000 0.64581  0.94781  0.90475  Biso   1.000  C 
  C22      1.0000 0.61446  0.91662  0.12349  Biso   1.000  C 
  C23      1.0000 0.88733  0.86973  0.60166  Biso   1.000  C 
  C24      1.0000 0.84815  0.57324  0.27710  Biso   1.000  C 
  C25      1.0000 0.59825  0.09912  0.63361  Biso   1.000  C 
  C26      1.0000 0.80188  0.61190  0.94807  Biso   1.000  C 
  C27      1.0000 0.06255  0.77550  0.81602  Biso   1.000  C 
  C28      1.0000 0.69956  0.68625  0.56022  Biso   1.000  C 
  C29      1.0000 0.47285  0.78677  0.90462  Biso   1.000  C 
  C30      1.0000 0.40718  0.05191  0.33831  Biso   1.000  C 
  C31      1.0000 0.71712  0.06467  0.33731  Biso   1.000  C 
  C32      1.0000 0.82436  0.37320  0.99382  Biso   1.000  C 
  C33      1.0000 0.05615  0.68358  0.49944  Biso   1.000  C 
  C34      1.0000 0.95629  0.40425  0.72388  Biso   1.000  C 
  C35      1.0000 0.50498  0.47834  0.08224  Biso   1.000  C 
  C36      1.0000 0.48384  0.86699  0.63175  Biso   1.000  C 
  C37      1.0000 0.36100  0.02010  0.39541  Biso   1.000  C 
  C38      1.0000 0.43824  0.72681  0.85556  Biso   1.000  C 
  C39      1.0000 0.68303  0.76247  0.58359  Biso   1.000  C 
  C40      1.0000 0.07871  0.71738  0.87114  Biso   1.000  C 
  C41      1.0000 0.74912  0.66988  0.92564  Biso   1.000  C 
  C42      1.0000 0.62015  0.04983  0.57047  Biso   1.000  C 
  C43      1.0000 0.50719  0.81402  0.68806  Biso   1.000  C 
  C44      1.0000 0.48824  0.53954  0.03162  Biso   1.000  C 
  C45      1.0000 0.03079  0.42806  0.73972  Biso   1.000  C 
  C46      1.0000 0.00985  0.63893  0.44813  Biso   1.000  C 
  C47      1.0000 0.75554  0.32360  0.98789  Biso   1.000  C 
  C48      1.0000 0.76466  0.04066  0.40073  Biso   1.000  C 
  C49      1.0000 0.25005  0.44336  0.79783  Biso   1.000  C 
  C50      1.0000 0.81863  0.17636  0.81182  Biso   1.000  C 
  C51      1.0000 0.57913  0.20307  0.27501  Biso   1.000  C 
  C52      1.0000 0.50319  0.16355  0.87778  Biso   1.000  C 
  C53      1.0000 0.73395  0.46688  0.50757  Biso   1.000  C 
  C54      1.0000 0.01429  0.45132  0.06832  Biso   1.000  C 
  C55      1.0000 0.67847  0.54722  0.72591  Biso   1.000  C 
  C56      1.0000 0.17959  0.90345  0.46547  Biso   1.000  C 
  C57      1.0000 0.74968  0.86960  0.88367  Biso   1.000  C 
  C58      1.0000 0.51921  0.86670  0.19563  Biso   1.000  C 
  C59      1.0000 0.95573  0.96525  0.66068  Biso   1.000  C 
  C60      1.0000 0.73801  0.56542  0.21580  Biso   1.000  C 
  C61      1.0000 0.07251  0.45283  0.00580  Biso   1.000  C 
  C62      1.0000 0.73244  0.41413  0.57125  Biso   1.000  C 
  C63      1.0000 0.48444  0.22516  0.92962  Biso   1.000  C 
  C64      1.0000 0.57731  0.27027  0.22972  Biso   1.000  C 
  C65      1.0000 0.84390  0.25307  0.80427  Biso   1.000  C 
  C66      1.0000 0.33310  0.44776  0.78402  Biso   1.000  C 
  C67      1.0000 0.72377  0.59179  0.29362  Biso   1.000  C 
  C68      1.0000 0.88391  0.99455  0.63358  Biso   1.000  C 
  C69      1.0000 0.54633  0.80925  0.14316  Biso   1.000  C 
  C70      1.0000 0.75808  0.94616  0.84909  Biso   1.000  C 
  C71      1.0000 0.10897  0.88156  0.50695  Biso   1.000  C 
  C72      1.0000 0.60263  0.57179  0.73925  Biso   1.000  C 
