data_image0
_cell_length_a       17.014
_cell_length_b       17.014
_cell_length_c       17.014
_cell_angle_alpha    90
_cell_angle_beta     90
_cell_angle_gamma    90

_symmetry_space_group_name_H-M    "P 1"
_symmetry_int_tables_number       1

loop_
  _symmetry_equiv_pos_as_xyz
  'x, y, z'

loop_
  _atom_site_label
  _atom_site_occupancy
  _atom_site_fract_x
  _atom_site_fract_y
  _atom_site_fract_z
  _atom_site_thermal_displace_type
  _atom_site_B_iso_or_equiv
  _atom_site_type_symbol
  H1       1.0000 0.55989  0.38708  0.00619  Biso   1.000  H 
  H2       1.0000 0.77893  0.86817  0.49353  Biso   1.000  H 
  H3       1.0000 0.08434  0.10857  0.45392  Biso   1.000  H 
  H4       1.0000 0.70623  0.38983  0.10318  Biso   1.000  H 
  H5       1.0000 0.63444  0.90689  0.66045  Biso   1.000  H 
  H6       1.0000 0.15073  0.43000  0.87711  Biso   1.000  H 
  H7       1.0000 0.43777  0.56645  0.85914  Biso   1.000  H 
  H8       1.0000 0.04609  0.69430  0.82886  Biso   1.000  H 
  H9       1.0000 0.34990  0.08242  0.68625  Biso   1.000  H 
  H10      1.0000 0.56545  0.60011  0.98279  Biso   1.000  H 
  H11      1.0000 0.00525  0.88256  0.69279  Biso   1.000  H 
  H12      1.0000 0.68511  0.84122  0.17194  Biso   1.000  H 
  H13      1.0000 0.71362  0.90114  0.83709  Biso   1.000  H 
  H14      1.0000 0.56106  0.91485  0.85695  Biso   1.000  H 
  H15      1.0000 0.91629  0.49581  0.02611  Biso   1.000  H 
  H16      1.0000 0.18792  0.92030  0.57121  Biso   1.000  H 
  H17      1.0000 0.24972  0.55064  0.96865  Biso   1.000  H 
  H18      1.0000 0.66357  0.77156  0.97845  Biso   1.000  H 
  H19      1.0000 0.18703  0.61733  0.75377  Biso   1.000  H 
  H20      1.0000 0.71625  0.07111  0.93399  Biso   1.000  H 
  H21      1.0000 0.79609  0.63808  0.21292  Biso   1.000  H 
  H22      1.0000 0.27342  0.28440  0.58051  Biso   1.000  H 
  H23      1.0000 0.29898  0.51083  0.82808  Biso   1.000  H 
  H24      1.0000 0.59156  0.08594  0.90668  Biso   1.000  H 
  N1       1.0000 0.64849  0.02519  0.69497  Biso   1.000  N 
  N2       1.0000 0.68692  0.61261  0.96228  Biso   1.000  N 
  N3       1.0000 0.15939  0.75009  0.81877  Biso   1.000  N 
  N4       1.0000 0.77337  0.84090  0.26497  Biso   1.000  N 
  N5       1.0000 0.43376  0.66928  0.93652  Biso   1.000  N 
  N6       1.0000 0.10602  0.00991  0.37795  Biso   1.000  N 
  N7       1.0000 0.03896  0.76425  0.67323  Biso   1.000  N 
  N8       1.0000 0.74244  0.45809  0.00387  Biso   1.000  N 
  N9       1.0000 0.74353  0.74814  0.45895  Biso   1.000  N 
  N10      1.0000 0.09624  0.44401  0.76094  Biso   1.000  N 
  N11      1.0000 0.55439  0.27521  0.06802  Biso   1.000  N 
  N12      1.0000 0.35220  0.10733  0.56720  Biso   1.000  N 
  N13      1.0000 0.19462  0.04848  0.46883  Biso   1.000  N 
  N14      1.0000 0.40728  0.54628  0.97924  Biso   1.000  N 
  N15      1.0000 0.80262  0.87028  0.13744  Biso   1.000  N 
  N16      1.0000 0.12551  0.67800  0.92864  Biso   1.000  N 
  N17      1.0000 0.59941  0.66822  0.88216  Biso   1.000  N 
  N18      1.0000 0.75656  0.95017  0.66413  Biso   1.000  N 
  N19      1.0000 0.46688  0.08731  0.63176  Biso   1.000  N 
  N20      1.0000 0.44171  0.34463  0.03604  Biso   1.000  N 
  N21      1.0000 0.05055  0.51309  0.86912  Biso   1.000  N 
  N22      1.0000 0.75070  0.78144  0.58761  Biso   1.000  N 
  N23      1.0000 0.70384  0.33181  0.98699  Biso   1.000  N 
  N24      1.0000 0.91396  0.80523  0.64056  Biso   1.000  N 
  N25      1.0000 0.14726  0.50294  0.02847  Biso   1.000  N 
  N26      1.0000 0.18031  0.20670  0.59405  Biso   1.000  N 
  N27      1.0000 0.75990  0.02712  0.04774  Biso   1.000  N 
  N28      1.0000 0.53393  0.13073  0.80098  Biso   1.000  N 
  N29      1.0000 0.18778  0.68636  0.64695  Biso   1.000  N 
  N30      1.0000 0.84623  0.60277  0.05630  Biso   1.000  N 
  N31      1.0000 0.30266  0.40948  0.74880  Biso   1.000  N 
  N32      1.0000 0.20528  0.01704  0.65079  Biso   1.000  N 
  N33      1.0000 0.48076  0.82489  0.81028  Biso   1.000  N 
  N34      1.0000 0.64755  0.88788  0.02903  Biso   1.000  N 
  N35      1.0000 0.79886  0.86593  0.92388  Biso   1.000  N 
  N36      1.0000 0.68280  0.59490  0.16565  Biso   1.000  N 
  N37      1.0000 0.97782  0.61203  0.03342  Biso   1.000  N 
  N38      1.0000 0.18619  0.55086  0.64476  Biso   1.000  N 
  N39      1.0000 0.58713  0.21146  0.89159  Biso   1.000  N 
  N40      1.0000 0.69134  0.14116  0.04204  Biso   1.000  N 
  N41      1.0000 0.17108  0.33123  0.64487  Biso   1.000  N 
  N42      1.0000 0.26433  0.44172  0.03098  Biso   1.000  N 
  N43      1.0000 0.69138  0.67925  0.27082  Biso   1.000  N 
  N44      1.0000 0.81320  0.83029  0.79528  Biso   1.000  N 
  N45      1.0000 0.54593  0.81654  0.97959  Biso   1.000  N 
  N46      1.0000 0.49367  0.94531  0.75142  Biso   1.000  N 
  N47      1.0000 0.19263  0.89247  0.69966  Biso   1.000  N 
  N48      1.0000 0.34388  0.39939  0.87737  Biso   1.000  N 
  H25      1.0000 0.70654  0.13482  0.72456  Biso   1.000  H 
  H26      1.0000 0.79619  0.65749  0.90146  Biso   1.000  H 
  H27      1.0000 0.27809  0.77806  0.85611  Biso   1.000  H 
  H28      1.0000 0.89225  0.87403  0.30725  Biso   1.000  H 
  H29      1.0000 0.40961  0.73045  0.04434  Biso   1.000  H 
  H30      1.0000 0.17656  0.90733  0.33764  Biso   1.000  H 
  H31      1.0000 0.03222  0.64856  0.62222  Biso   1.000  H 
  H32      1.0000 0.76604  0.48580  0.88161  Biso   1.000  H 
  H33      1.0000 0.70307  0.62660  0.48139  Biso   1.000  H 
  H34      1.0000 0.01070  0.48532  0.67521  Biso   1.000  H 
  H35      1.0000 0.49790  0.17745  0.12606  Biso   1.000  H 
  H36      1.0000 0.39839  0.12681  0.44955  Biso   1.000  H 
  H37      1.0000 0.27571  0.95210  0.45726  Biso   1.000  H 
  H38      1.0000 0.37353  0.58171  0.09744  Biso   1.000  H 
  H39      1.0000 0.92555  0.90573  0.15940  Biso   1.000  H 
  H40      1.0000 0.23997  0.70338  0.98593  Biso   1.000  H 
  H41      1.0000 0.69091  0.71972  0.80093  Biso   1.000  H 
  H42      1.0000 0.84456  0.03220  0.70944  Biso   1.000  H 
  H43      1.0000 0.54875  0.10542  0.54353  Biso   1.000  H 
  H44      1.0000 0.36185  0.27892  0.10998  Biso   1.000  H 
  H45      1.0000 0.95356  0.56909  0.80176  Biso   1.000  H 
  H46      1.0000 0.72845  0.66892  0.63564  Biso   1.000  H 
  H47      1.0000 0.72495  0.32553  0.86499  Biso   1.000  H 
  H48      1.0000 0.87526  0.69863  0.58952  Biso   1.000  H 
  H49      1.0000 0.08320  0.41901  0.09201  Biso   1.000  H 
  H50      1.0000 0.07049  0.16014  0.63861  Biso   1.000  H 
  H51      1.0000 0.79003  0.03850  0.17502  Biso   1.000  H 
  H52      1.0000 0.51342  0.21825  0.70617  Biso   1.000  H 
  H53      1.0000 0.18516  0.69793  0.51994  Biso   1.000  H 
  H54      1.0000 0.82243  0.72979  0.06905  Biso   1.000  H 
  H55      1.0000 0.33129  0.28346  0.71755  Biso   1.000  H 
  H56      1.0000 0.21817  0.07073  0.76811  Biso   1.000  H 
  H57      1.0000 0.38316  0.78568  0.72737  Biso   1.000  H 
  H58      1.0000 0.57803  0.98397  0.07356  Biso   1.000  H 
  H59      1.0000 0.91046  0.81239  0.96593  Biso   1.000  H 
  H60      1.0000 0.55502  0.58711  0.15072  Biso   1.000  H 
  H61      1.0000 0.98624  0.73598  0.04769  Biso   1.000  H 
  H62      1.0000 0.19045  0.54246  0.51569  Biso   1.000  H 
  H63      1.0000 0.57825  0.32038  0.82116  Biso   1.000  H 
  H64      1.0000 0.69359  0.16851  0.16915  Biso   1.000  H 
  H65      1.0000 0.05402  0.31698  0.70025  Biso   1.000  H 
  H66      1.0000 0.23558  0.34530  0.10545  Biso   1.000  H 
  H67      1.0000 0.57012  0.69504  0.28717  Biso   1.000  H 
  H68      1.0000 0.92639  0.77127  0.80553  Biso   1.000  H 
  H69      1.0000 0.44994  0.89001  0.02054  Biso   1.000  H 
  H70      1.0000 0.40036  0.92678  0.66407  Biso   1.000  H 
  H71      1.0000 0.19691  0.92405  0.82479  Biso   1.000  H 
  H72      1.0000 0.37832  0.27413  0.87446  Biso   1.000  H 
  Zn1      1.0000 0.73539  0.76276  0.34065  Biso   1.000  Zn
  Zn2      1.0000 0.23122  0.10245  0.56093  Biso   1.000  Zn
  Zn3      1.0000 0.63791  0.23421  0.99365  Biso   1.000  Zn
  Zn4      1.0000 0.53359  0.04605  0.71697  Biso   1.000  Zn
  Zn5      1.0000 0.19492  0.43641  0.69571  Biso   1.000  Zn
  Zn6      1.0000 0.73099  0.56180  0.05711  Biso   1.000  Zn
  Zn7      1.0000 0.07761  0.57118  0.96726  Biso   1.000  Zn
  Zn8      1.0000 0.50925  0.74221  0.88665  Biso   1.000  Zn
  Zn9      1.0000 0.76657  0.91365  0.03337  Biso   1.000  Zn
  Zn10     1.0000 0.16173  0.78346  0.70591  Biso   1.000  Zn
  Zn11     1.0000 0.80847  0.84684  0.67500  Biso   1.000  Zn
  Zn12     1.0000 0.37799  0.43208  0.98846  Biso   1.000  Zn
  C1       1.0000 0.67816  0.95623  0.66641  Biso   1.000  C 
  C2       1.0000 0.61157  0.62499  0.94933  Biso   1.000  C 
  C3       1.0000 0.10310  0.70668  0.85748  Biso   1.000  C 
  C4       1.0000 0.74606  0.84836  0.19036  Biso   1.000  C 
  C5       1.0000 0.42794  0.59103  0.91638  Biso   1.000  C 
  C6       1.0000 0.12325  0.06292  0.43344  Biso   1.000  C 
  C7       1.0000 0.98715  0.82411  0.67118  Biso   1.000  C 
  C8       1.0000 0.71701  0.39128  0.03900  Biso   1.000  C 
  C9       1.0000 0.75747  0.80828  0.51305  Biso   1.000  C 
  C10      1.0000 0.10410  0.45692  0.83941  Biso   1.000  C 
  C11      1.0000 0.52218  0.34155  0.03210  Biso   1.000  C 
  C12      1.0000 0.38685  0.09368  0.63411  Biso   1.000  C 
  C13      1.0000 0.22254  0.50372  0.00139  Biso   1.000  C 
  C14      1.0000 0.21555  0.27855  0.60635  Biso   1.000  C 
  C15      1.0000 0.72179  0.07985  0.00179  Biso   1.000  C 
  C16      1.0000 0.57194  0.13768  0.87175  Biso   1.000  C 
  C17      1.0000 0.18331  0.61680  0.69066  Biso   1.000  C 
  C18      1.0000 0.91508  0.56232  0.03576  Biso   1.000  C 
  C19      1.0000 0.31394  0.44779  0.82113  Biso   1.000  C 
  C20      1.0000 0.19679  0.93904  0.63263  Biso   1.000  C 
  C21      1.0000 0.52125  0.89602  0.80912  Biso   1.000  C 
  C22      1.0000 0.62428  0.82167  0.98579  Biso   1.000  C 
  C23      1.0000 0.76937  0.87281  0.84892  Biso   1.000  C 
  C24      1.0000 0.73176  0.63963  0.21497  Biso   1.000  C 
  C25      1.0000 0.71772  0.06924  0.71019  Biso   1.000  C 
  C26      1.0000 0.73024  0.65027  0.90252  Biso   1.000  C 
  C27      1.0000 0.22510  0.74558  0.86854  Biso   1.000  C 
  C28      1.0000 0.85206  0.86045  0.25988  Biso   1.000  C 
  C29      1.0000 0.42126  0.67353  0.01468  Biso   1.000  C 
  C30      1.0000 0.16936  0.95682  0.37604  Biso   1.000  C 
  C31      1.0000 0.99645  0.70110  0.64024  Biso   1.000  C 
  C32      1.0000 0.74969  0.43930  0.92692  Biso   1.000  C 
  C33      1.0000 0.72296  0.68010  0.50674  Biso   1.000  C 
  C34      1.0000 0.02981  0.48905  0.73823  Biso   1.000  C 
  C35      1.0000 0.48963  0.23446  0.09990  Biso   1.000  C 
  C36      1.0000 0.41331  0.11892  0.51308  Biso   1.000  C 
  C37      1.0000 0.22234  0.97940  0.43381  Biso   1.000  C 
  C38      1.0000 0.40492  0.59918  0.04426  Biso   1.000  C 
  C39      1.0000 0.87027  0.88035  0.18033  Biso   1.000  C 
  C40      1.0000 0.20484  0.70353  0.93351  Biso   1.000  C 
  C41      1.0000 0.67667  0.68193  0.85198  Biso   1.000  C 
  C42      1.0000 0.78266  0.02682  0.68997  Biso   1.000  C 
  C43      1.0000 0.48531  0.10756  0.55459  Biso   1.000  C 
  C44      1.0000 0.42093  0.28000  0.08379  Biso   1.000  C 
  C45      1.0000 0.00221  0.52913  0.80056  Biso   1.000  C 
  C46      1.0000 0.72902  0.70447  0.58201  Biso   1.000  C 
  C47      1.0000 0.73064  0.36268  0.91710  Biso   1.000  C 
  C48      1.0000 0.92248  0.72742  0.61860  Biso   1.000  C 
  C49      1.0000 0.14293  0.43753  0.07575  Biso   1.000  C 
  C50      1.0000 0.10983  0.21484  0.63414  Biso   1.000  C 
  C51      1.0000 0.75558  0.05647  0.12423  Biso   1.000  C 
  C52      1.0000 0.53174  0.20478  0.76901  Biso   1.000  C 
  C53      1.0000 0.19653  0.66087  0.56976  Biso   1.000  C 
  C54      1.0000 0.86564  0.68175  0.06433  Biso   1.000  C 
  C55      1.0000 0.33375  0.33004  0.76384  Biso   1.000  C 
  C56      1.0000 0.20870  0.01916  0.73194  Biso   1.000  C 
  C57      1.0000 0.42634  0.82910  0.74818  Biso   1.000  C 
  C58      1.0000 0.57832  0.92956  0.04146  Biso   1.000  C 
  C59      1.0000 0.86965  0.82248  0.91733  Biso   1.000  C 
  C60      1.0000 0.60548  0.61537  0.18432  Biso   1.000  C 
  C61      1.0000 0.94774  0.68441  0.05094  Biso   1.000  C 
  C62      1.0000 0.19194  0.57964  0.56774  Biso   1.000  C 
  C63      1.0000 0.56779  0.25681  0.82474  Biso   1.000  C 
  C64      1.0000 0.71288  0.12811  0.12185  Biso   1.000  C 
  C65      1.0000 0.09948  0.29095  0.66046  Biso   1.000  C 
  C66      1.0000 0.21958  0.40329  0.08552  Biso   1.000  C 
  C67      1.0000 0.61084  0.66633  0.24885  Biso   1.000  C 
  C68      1.0000 0.87739  0.79780  0.83730  Biso   1.000  C 
  C69      1.0000 0.51623  0.88442  0.01227  Biso   1.000  C 
  C70      1.0000 0.43229  0.90568  0.71734  Biso   1.000  C 
  C71      1.0000 0.20170  0.94230  0.76200  Biso   1.000  C 
  C72      1.0000 0.35514  0.32511  0.84218  Biso   1.000  C 
