data_image0
_cell_length_a       17.014
_cell_length_b       17.014
_cell_length_c       17.014
_cell_angle_alpha    90
_cell_angle_beta     90
_cell_angle_gamma    90

_symmetry_space_group_name_H-M    "P 1"
_symmetry_int_tables_number       1

loop_
  _symmetry_equiv_pos_as_xyz
  'x, y, z'

loop_
  _atom_site_label
  _atom_site_occupancy
  _atom_site_fract_x
  _atom_site_fract_y
  _atom_site_fract_z
  _atom_site_thermal_displace_type
  _atom_site_B_iso_or_equiv
  _atom_site_type_symbol
  H1       1.0000 0.48688  0.47992  0.04849  Biso   1.000  H 
  H2       1.0000 0.10260  0.36379  0.42872  Biso   1.000  H 
  H3       1.0000 0.41792  0.15204  0.37798  Biso   1.000  H 
  H4       1.0000 0.66255  0.42040  0.10383  Biso   1.000  H 
  H5       1.0000 0.67993  0.95333  0.68093  Biso   1.000  H 
  H6       1.0000 0.99317  0.48127  0.65432  Biso   1.000  H 
  H7       1.0000 0.40307  0.72994  0.00151  Biso   1.000  H 
  H8       1.0000 0.98738  0.67711  0.66707  Biso   1.000  H 
  H9       1.0000 0.46639  0.04921  0.60938  Biso   1.000  H 
  H10      1.0000 0.62854  0.63462  0.02511  Biso   1.000  H 
  H11      1.0000 0.62846  0.08877  0.47915  Biso   1.000  H 
  H12      1.0000 0.05464  0.61773  0.47100  Biso   1.000  H 
  H13      1.0000 0.96881  0.95447  0.53442  Biso   1.000  H 
  H14      1.0000 0.51130  0.96177  0.96357  Biso   1.000  H 
  H15      1.0000 0.95550  0.50670  0.94189  Biso   1.000  H 
  H16      1.0000 0.19105  0.90673  0.59464  Biso   1.000  H 
  H17      1.0000 0.15411  0.58461  0.15328  Biso   1.000  H 
  H18      1.0000 0.50474  0.94139  0.22044  Biso   1.000  H 
  H19      1.0000 0.88806  0.21542  0.50620  Biso   1.000  H 
  H20      1.0000 0.56353  0.15378  0.13224  Biso   1.000  H 
  H21      1.0000 0.89374  0.56686  0.24477  Biso   1.000  H 
  H22      1.0000 0.11500  0.14473  0.53458  Biso   1.000  H 
  H23      1.0000 0.19441  0.51198  0.93035  Biso   1.000  H 
  H24      1.0000 0.46047  0.19657  0.87393  Biso   1.000  H 
  N1       1.0000 0.60094  0.05494  0.69948  Biso   1.000  N 
  N2       1.0000 0.72314  0.61738  0.10522  Biso   1.000  N 
  N3       1.0000 0.09319  0.72621  0.61541  Biso   1.000  N 
  N4       1.0000 0.02588  0.62948  0.34329  Biso   1.000  N 
  N5       1.0000 0.46858  0.74762  0.10486  Biso   1.000  N 
  N6       1.0000 0.49147  0.05577  0.35665  Biso   1.000  N 
  N7       1.0000 0.74350  0.04151  0.45692  Biso   1.000  N 
  N8       1.0000 0.75307  0.44217  0.01590  Biso   1.000  N 
  N9       1.0000 0.01216  0.37683  0.51417  Biso   1.000  N 
  N10      1.0000 0.04618  0.37357  0.69818  Biso   1.000  N 
  N11      1.0000 0.45152  0.36516  0.00739  Biso   1.000  N 
  N12      1.0000 0.33409  0.04581  0.62422  Biso   1.000  N 
  N13      1.0000 0.38695  0.04009  0.44099  Biso   1.000  N 
  N14      1.0000 0.38964  0.63862  0.09833  Biso   1.000  N 
  N15      1.0000 0.02194  0.73381  0.43078  Biso   1.000  N 
  N16      1.0000 0.10071  0.66398  0.73117  Biso   1.000  N 
  N17      1.0000 0.65369  0.73660  0.09424  Biso   1.000  N 
  N18      1.0000 0.70599  0.06560  0.62583  Biso   1.000  N 
  N19      1.0000 0.41951  0.03846  0.72599  Biso   1.000  N 
  N20      1.0000 0.36307  0.46283  0.03371  Biso   1.000  N 
  N21      1.0000 0.04155  0.47953  0.77948  Biso   1.000  N 
  N22      1.0000 0.02222  0.46253  0.41083  Biso   1.000  N 
  N23      1.0000 0.65034  0.36181  0.99347  Biso   1.000  N 
  N24      1.0000 0.66804  0.07852  0.35847  Biso   1.000  N 
  N25      1.0000 0.15928  0.50517  0.25932  Biso   1.000  N 
  N26      1.0000 0.24274  0.16562  0.51738  Biso   1.000  N 
  N27      1.0000 0.56862  0.20584  0.24299  Biso   1.000  N 
  N28      1.0000 0.54138  0.10409  0.87330  Biso   1.000  N 
  N29      1.0000 0.97131  0.20951  0.60729  Biso   1.000  N 
  N30      1.0000 0.87047  0.59677  0.97912  Biso   1.000  N 
  N31      1.0000 0.14131  0.61781  0.90483  Biso   1.000  N 
  N32      1.0000 0.21548  0.97233  0.48981  Biso   1.000  N 
  N33      1.0000 0.54956  0.83945  0.94679  Biso   1.000  N 
  N34      1.0000 0.58639  0.02823  0.18603  Biso   1.000  N 
  N35      1.0000 0.94157  0.83697  0.56413  Biso   1.000  N 
  N36      1.0000 0.87268  0.49116  0.14484  Biso   1.000  N 
  N37      1.0000 0.96177  0.61892  0.88358  Biso   1.000  N 
  N38      1.0000 0.88498  0.11427  0.58380  Biso   1.000  N 
  N39      1.0000 0.55778  0.21044  0.95445  Biso   1.000  N 
  N40      1.0000 0.54357  0.27847  0.13740  Biso   1.000  N 
  N41      1.0000 0.16014  0.26128  0.56047  Biso   1.000  N 
  N42      1.0000 0.25351  0.51595  0.16730  Biso   1.000  N 
  N43      1.0000 0.98230  0.48628  0.21833  Biso   1.000  N 
  N44      1.0000 0.84598  0.92871  0.57137  Biso   1.000  N 
  N45      1.0000 0.57598  0.92065  0.11224  Biso   1.000  N 
  N46      1.0000 0.52850  0.92196  0.84290  Biso   1.000  N 
  N47      1.0000 0.11505  0.88087  0.49225  Biso   1.000  N 
  N48      1.0000 0.22919  0.60417  0.00554  Biso   1.000  N 
  H25      1.0000 0.56416  0.17532  0.69112  Biso   1.000  H 
  H26      1.0000 0.80382  0.66377  0.20529  Biso   1.000  H 
  H27      1.0000 0.21647  0.76879  0.60475  Biso   1.000  H 
  H28      1.0000 0.97070  0.68499  0.24695  Biso   1.000  H 
  H29      1.0000 0.50457  0.73112  0.22404  Biso   1.000  H 
  H30      1.0000 0.54060  0.93605  0.36636  Biso   1.000  H 
  H31      1.0000 0.83918  0.99934  0.39235  Biso   1.000  H 
  H32      1.0000 0.80480  0.42651  0.90355  Biso   1.000  H 
  H33      1.0000 0.91170  0.41426  0.56964  Biso   1.000  H 
  H34      1.0000 0.10242  0.29224  0.77819  Biso   1.000  H 
  H35      1.0000 0.36937  0.27550  0.97635  Biso   1.000  H 
  H36      1.0000 0.22745  0.03389  0.68986  Biso   1.000  H 
  H37      1.0000 0.41292  0.92189  0.47904  Biso   1.000  H 
  H38      1.0000 0.39218  0.60857  0.22043  Biso   1.000  H 
  H39      1.0000 0.97424  0.81740  0.34615  Biso   1.000  H 
  H40      1.0000 0.21248  0.70427  0.76550  Biso   1.000  H 
  H41      1.0000 0.70831  0.79557  0.19128  Biso   1.000  H 
  H42      1.0000 0.69495  0.18790  0.59109  Biso   1.000  H 
  H43      1.0000 0.33463  0.02495  0.81586  Biso   1.000  H 
  H44      1.0000 0.25984  0.39198  0.00836  Biso   1.000  H 
  H45      1.0000 0.08291  0.41362  0.88764  Biso   1.000  H 
  H46      1.0000 0.92069  0.52874  0.43491  Biso   1.000  H 
  H47      1.0000 0.67159  0.33501  0.87377  Biso   1.000  H 
  H48      1.0000 0.74577  0.06445  0.26115  Biso   1.000  H 
  H49      1.0000 0.21363  0.41880  0.33477  Biso   1.000  H 
  H50      1.0000 0.35294  0.22801  0.52269  Biso   1.000  H 
  H51      1.0000 0.56497  0.29384  0.33008  Biso   1.000  H 
  H52      1.0000 0.64589  0.04020  0.90534  Biso   1.000  H 
  H53      1.0000 0.02955  0.16654  0.70472  Biso   1.000  H 
  H54      1.0000 0.82059  0.71405  0.98281  Biso   1.000  H 
  H55      1.0000 0.11824  0.74359  0.92058  Biso   1.000  H 
  H56      1.0000 0.21005  0.00276  0.36859  Biso   1.000  H 
  H57      1.0000 0.57392  0.73405  0.87386  Biso   1.000  H 
  H58      1.0000 0.68995  0.08017  0.12345  Biso   1.000  H 
  H59      1.0000 0.88109  0.73442  0.59767  Biso   1.000  H 
  H60      1.0000 0.89668  0.38410  0.07906  Biso   1.000  H 
  H61      1.0000 0.92129  0.74473  0.86552  Biso   1.000  H 
  H62      1.0000 0.91588  0.03690  0.67902  Biso   1.000  H 
  H63      1.0000 0.66909  0.16503  0.00355  Biso   1.000  H 
  H64      1.0000 0.52721  0.38661  0.19712  Biso   1.000  H 
  H65      1.0000 0.25028  0.35143  0.57031  Biso   1.000  H 
  H66      1.0000 0.34073  0.43373  0.22108  Biso   1.000  H 
  H67      1.0000 0.03011  0.38097  0.16970  Biso   1.000  H 
  H68      1.0000 0.75447  0.85230  0.61447  Biso   1.000  H 
  H69      1.0000 0.67846  0.93935  0.03938  Biso   1.000  H 
  H70      1.0000 0.56207  0.84549  0.75143  Biso   1.000  H 
  H71      1.0000 0.08507  0.89844  0.36839  Biso   1.000  H 
  H72      1.0000 0.22337  0.72208  0.05106  Biso   1.000  H 
  Zn1      1.0000 0.04607  0.51918  0.31123  Biso   1.000  Zn
  Zn2      1.0000 0.29444  0.06015  0.51440  Biso   1.000  Zn
  Zn3      1.0000 0.54925  0.30096  0.02067  Biso   1.000  Zn
  Zn4      1.0000 0.52207  0.03433  0.78272  Biso   1.000  Zn
  Zn5      1.0000 0.04645  0.30320  0.59804  Biso   1.000  Zn
  Zn6      1.0000 0.80567  0.54046  0.06265  Biso   1.000  Zn
  Zn7      1.0000 0.05880  0.59988  0.82313  Biso   1.000  Zn
  Zn8      1.0000 0.55696  0.81045  0.06060  Biso   1.000  Zn
  Zn9      1.0000 0.57521  0.08932  0.28704  Biso   1.000  Zn
  Zn10     1.0000 0.04426  0.79121  0.52874  Biso   1.000  Zn
  Zn11     1.0000 0.79819  0.03501  0.56068  Biso   1.000  Zn
  Zn12     1.0000 0.30926  0.55720  0.07256  Biso   1.000  Zn
  C1       1.0000 0.66466  0.01540  0.67109  Biso   1.000  C 
  C2       1.0000 0.66433  0.65871  0.06850  Biso   1.000  C 
  C3       1.0000 0.05327  0.68244  0.66943  Biso   1.000  C 
  C4       1.0000 0.03989  0.65505  0.42032  Biso   1.000  C 
  C5       1.0000 0.41949  0.70360  0.05862  Biso   1.000  C 
  C6       1.0000 0.42912  0.08935  0.39353  Biso   1.000  C 
  C7       1.0000 0.67346  0.07022  0.43697  Biso   1.000  C 
  C8       1.0000 0.68763  0.41162  0.04813  Biso   1.000  C 
  C9       1.0000 0.05168  0.39796  0.44834  Biso   1.000  C 
  C10      1.0000 0.02386  0.45087  0.70661  Biso   1.000  C 
  C11      1.0000 0.44002  0.43900  0.03632  Biso   1.000  C 
  C12      1.0000 0.41075  0.04255  0.64598  Biso   1.000  C 
  C13      1.0000 0.18146  0.53903  0.19124  Biso   1.000  C 
  C14      1.0000 0.16729  0.18635  0.53993  Biso   1.000  C 
  C15      1.0000 0.55868  0.20783  0.16579  Biso   1.000  C 
  C16      1.0000 0.51009  0.17175  0.89951  Biso   1.000  C 
  C17      1.0000 0.91042  0.18522  0.55914  Biso   1.000  C 
  C18      1.0000 0.93217  0.56536  0.93808  Biso   1.000  C 
  C19      1.0000 0.19157  0.56983  0.94444  Biso   1.000  C 
  C20      1.0000 0.17563  0.91811  0.53319  Biso   1.000  C 
  C21      1.0000 0.52325  0.91018  0.92385  Biso   1.000  C 
  C22      1.0000 0.54643  0.96203  0.17346  Biso   1.000  C 
  C23      1.0000 0.92040  0.91226  0.55318  Biso   1.000  C 
  C24      1.0000 0.91420  0.52330  0.20573  Biso   1.000  C 
  C25      1.0000 0.60617  0.13007  0.67534  Biso   1.000  C 
  C26      1.0000 0.75174  0.67294  0.16257  Biso   1.000  C 
  C27      1.0000 0.17000  0.73617  0.64161  Biso   1.000  C 
  C28      1.0000 0.98976  0.69442  0.30879  Biso   1.000  C 
  C29      1.0000 0.47388  0.70347  0.17575  Biso   1.000  C 
  C30      1.0000 0.48884  0.97497  0.38626  Biso   1.000  C 
  C31      1.0000 0.78191  0.02847  0.38585  Biso   1.000  C 
  C32      1.0000 0.75500  0.41660  0.93840  Biso   1.000  C 
  C33      1.0000 0.94985  0.43001  0.51768  Biso   1.000  C 
  C34      1.0000 0.07528  0.35161  0.76919  Biso   1.000  C 
  C35      1.0000 0.37648  0.33662  0.99193  Biso   1.000  C 
  C36      1.0000 0.28868  0.04256  0.69416  Biso   1.000  C 
  C37      1.0000 0.42959  0.97029  0.44153  Biso   1.000  C 
  C38      1.0000 0.42487  0.64019  0.17200  Biso   1.000  C 
  C39      1.0000 0.98775  0.75638  0.35900  Biso   1.000  C 
  C40      1.0000 0.16990  0.69912  0.71755  Biso   1.000  C 
  C41      1.0000 0.70666  0.74098  0.15638  Biso   1.000  C 
  C42      1.0000 0.67159  0.13890  0.62556  Biso   1.000  C 
  C43      1.0000 0.34226  0.03874  0.75158  Biso   1.000  C 
  C44      1.0000 0.32178  0.39405  0.01065  Biso   1.000  C 
  C45      1.0000 0.06842  0.41333  0.82050  Biso   1.000  C 
  C46      1.0000 0.95677  0.48122  0.45551  Biso   1.000  C 
  C47      1.0000 0.69229  0.36734  0.92509  Biso   1.000  C 
  C48      1.0000 0.74027  0.05619  0.32490  Biso   1.000  C 
  C49      1.0000 0.22156  0.45632  0.28087  Biso   1.000  C 
  C50      1.0000 0.28560  0.23316  0.52821  Biso   1.000  C 
  C51      1.0000 0.55934  0.27989  0.26683  Biso   1.000  C 
  C52      1.0000 0.60956  0.09280  0.91424  Biso   1.000  C 
  C53      1.0000 0.98036  0.15414  0.66508  Biso   1.000  C 
  C54      1.0000 0.86497  0.67431  0.95870  Biso   1.000  C 
  C55      1.0000 0.15128  0.69164  0.94272  Biso   1.000  C 
  C56      1.0000 0.18235  0.97082  0.41618  Biso   1.000  C 
  C57      1.0000 0.56129  0.79650  0.87563  Biso   1.000  C 
  C58      1.0000 0.65063  0.02569  0.13383  Biso   1.000  C 
  C59      1.0000 0.87589  0.79804  0.58732  Biso   1.000  C 
  C60      1.0000 0.91423  0.42533  0.12496  Biso   1.000  C 
  C61      1.0000 0.92097  0.68956  0.90275  Biso   1.000  C 
  C62      1.0000 0.92700  0.09140  0.64877  Biso   1.000  C 
  C63      1.0000 0.62131  0.15843  0.96059  Biso   1.000  C 
  C64      1.0000 0.54287  0.32632  0.20268  Biso   1.000  C 
  C65      1.0000 0.23827  0.29229  0.55225  Biso   1.000  C 
  C66      1.0000 0.28084  0.45862  0.22101  Biso   1.000  C 
  C67      1.0000 0.98182  0.42264  0.16627  Biso   1.000  C 
  C68      1.0000 0.81624  0.85783  0.59766  Biso   1.000  C 
  C69      1.0000 0.63962  0.96092  0.08385  Biso   1.000  C 
  C70      1.0000 0.55470  0.84991  0.81499  Biso   1.000  C 
  C71      1.0000 0.12316  0.91469  0.41690  Biso   1.000  C 
  C72      1.0000 0.20477  0.68198  0.00599  Biso   1.000  C 
