data_image0
_cell_length_a       17.014
_cell_length_b       17.014
_cell_length_c       17.014
_cell_angle_alpha    90
_cell_angle_beta     90
_cell_angle_gamma    90

_symmetry_space_group_name_H-M    "P 1"
_symmetry_int_tables_number       1

loop_
  _symmetry_equiv_pos_as_xyz
  'x, y, z'

loop_
  _atom_site_label
  _atom_site_occupancy
  _atom_site_fract_x
  _atom_site_fract_y
  _atom_site_fract_z
  _atom_site_thermal_displace_type
  _atom_site_B_iso_or_equiv
  _atom_site_type_symbol
  H1       1.0000 0.41317  0.43305  0.12634  Biso   1.000  H 
  H2       1.0000 0.09656  0.45820  0.46139  Biso   1.000  H 
  H3       1.0000 0.43643  0.12480  0.45557  Biso   1.000  H 
  H4       1.0000 0.67594  0.45435  0.00098  Biso   1.000  H 
  H5       1.0000 0.63079  0.09777  0.62980  Biso   1.000  H 
  H6       1.0000 0.98999  0.45128  0.65840  Biso   1.000  H 
  H7       1.0000 0.48833  0.64164  0.03423  Biso   1.000  H 
  H8       1.0000 0.11314  0.63285  0.64408  Biso   1.000  H 
  H9       1.0000 0.45692  0.99520  0.65106  Biso   1.000  H 
  H10      1.0000 0.69726  0.67765  0.12323  Biso   1.000  H 
  H11      1.0000 0.66770  0.99228  0.43160  Biso   1.000  H 
  H12      1.0000 0.98548  0.66422  0.42427  Biso   1.000  H 
  H13      1.0000 0.95630  0.93817  0.59878  Biso   1.000  H 
  H14      1.0000 0.61284  0.95856  0.95801  Biso   1.000  H 
  H15      1.0000 0.93189  0.62495  0.94099  Biso   1.000  H 
  H16      1.0000 0.17052  0.94099  0.46355  Biso   1.000  H 
  H17      1.0000 0.12684  0.57896  0.12345  Biso   1.000  H 
  H18      1.0000 0.50242  0.95431  0.17647  Biso   1.000  H 
  H19      1.0000 0.96585  0.13070  0.50118  Biso   1.000  H 
  H20      1.0000 0.62700  0.20110  0.20630  Biso   1.000  H 
  H21      1.0000 0.96924  0.49763  0.13305  Biso   1.000  H 
  H22      1.0000 0.13865  0.15771  0.60295  Biso   1.000  H 
  H23      1.0000 0.16717  0.49228  0.93038  Biso   1.000  H 
  H24      1.0000 0.50002  0.17198  0.94862  Biso   1.000  H 
  N1       1.0000 0.63521  0.03118  0.73755  Biso   1.000  N 
  N2       1.0000 0.72157  0.63215  0.01118  Biso   1.000  N 
  N3       1.0000 0.01761  0.71894  0.62895  Biso   1.000  N 
  N4       1.0000 0.09579  0.61784  0.37966  Biso   1.000  N 
  N5       1.0000 0.46311  0.74823  0.09253  Biso   1.000  N 
  N6       1.0000 0.36846  0.01807  0.46817  Biso   1.000  N 
  N7       1.0000 0.64319  0.10570  0.37987  Biso   1.000  N 
  N8       1.0000 0.75702  0.45692  0.09910  Biso   1.000  N 
  N9       1.0000 0.00982  0.36399  0.45604  Biso   1.000  N 
  N10      1.0000 0.08585  0.37382  0.62770  Biso   1.000  N 
  N11      1.0000 0.47233  0.38734  0.02380  Biso   1.000  N 
  N12      1.0000 0.35009  0.07534  0.65574  Biso   1.000  N 
  N13      1.0000 0.47398  0.02231  0.38711  Biso   1.000  N 
  N14      1.0000 0.36873  0.65513  0.08930  Biso   1.000  N 
  N15      1.0000 0.09606  0.71323  0.47149  Biso   1.000  N 
  N16      1.0000 0.01133  0.62198  0.72033  Biso   1.000  N 
  N17      1.0000 0.63536  0.73447  0.02757  Biso   1.000  N 
  N18      1.0000 0.72834  0.02168  0.64211  Biso   1.000  N 
  N19      1.0000 0.44748  0.07954  0.74727  Biso   1.000  N 
  N20      1.0000 0.38345  0.48353  0.01325  Biso   1.000  N 
  N21      1.0000 0.08905  0.44963  0.73522  Biso   1.000  N 
  N22      1.0000 0.00426  0.46555  0.36827  Biso   1.000  N 
  N23      1.0000 0.65267  0.37288  0.10172  Biso   1.000  N 
  N24      1.0000 0.73516  0.09393  0.46903  Biso   1.000  N 
  N25      1.0000 0.14128  0.51031  0.22963  Biso   1.000  N 
  N26      1.0000 0.23343  0.14237  0.51583  Biso   1.000  N 
  N27      1.0000 0.52119  0.13479  0.23076  Biso   1.000  N 
  N28      1.0000 0.59810  0.15144  0.87721  Biso   1.000  N 
  N29      1.0000 0.97086  0.22217  0.58789  Biso   1.000  N 
  N30      1.0000 0.86264  0.51792  0.95568  Biso   1.000  N 
  N31      1.0000 0.13789  0.59747  0.86409  Biso   1.000  N 
  N32      1.0000 0.21758  0.96886  0.57944  Biso   1.000  N 
  N33      1.0000 0.51762  0.87597  0.97116  Biso   1.000  N 
  N34      1.0000 0.59755  0.96492  0.24796  Biso   1.000  N 
  N35      1.0000 0.95490  0.86240  0.50332  Biso   1.000  N 
  N36      1.0000 0.88417  0.59419  0.11973  Biso   1.000  N 
  N37      1.0000 0.96607  0.52244  0.87051  Biso   1.000  N 
  N38      1.0000 0.88115  0.12523  0.59223  Biso   1.000  N 
  N39      1.0000 0.60289  0.24373  0.97410  Biso   1.000  N 
  N40      1.0000 0.52085  0.24308  0.15193  Biso   1.000  N 
  N41      1.0000 0.13976  0.23550  0.50896  Biso   1.000  N 
  N42      1.0000 0.24216  0.53321  0.14624  Biso   1.000  N 
  N43      1.0000 0.96676  0.58830  0.22312  Biso   1.000  N 
  N44      1.0000 0.85858  0.95208  0.51362  Biso   1.000  N 
  N45      1.0000 0.60164  0.87324  0.15450  Biso   1.000  N 
  N46      1.0000 0.50904  0.98211  0.88976  Biso   1.000  N 
  N47      1.0000 0.13454  0.87052  0.56629  Biso   1.000  N 
  N48      1.0000 0.24506  0.59209  0.94425  Biso   1.000  N 
  H25      1.0000 0.68480  0.94248  0.81441  Biso   1.000  H 
  H26      1.0000 0.72093  0.62804  0.88560  Biso   1.000  H 
  H27      1.0000 0.90249  0.77343  0.65510  Biso   1.000  H 
  H28      1.0000 0.22576  0.60387  0.37648  Biso   1.000  H 
  H29      1.0000 0.40168  0.82833  0.17212  Biso   1.000  H 
  H30      1.0000 0.33381  0.89560  0.44152  Biso   1.000  H 
  H31      1.0000 0.67683  0.22603  0.33926  Biso   1.000  H 
  H32      1.0000 0.80271  0.42234  0.21409  Biso   1.000  H 
  H33      1.0000 0.91042  0.29216  0.41767  Biso   1.000  H 
  H34      1.0000 0.20332  0.32373  0.63061  Biso   1.000  H 
  H35      1.0000 0.49244  0.36877  0.90011  Biso   1.000  H 
  H36      1.0000 0.27944  0.17518  0.70628  Biso   1.000  H 
  H37      1.0000 0.45626  0.91057  0.32524  Biso   1.000  H 
  H38      1.0000 0.28037  0.70849  0.16577  Biso   1.000  H 
  H39      1.0000 0.21676  0.71198  0.50443  Biso   1.000  H 
  H40      1.0000 0.89642  0.66536  0.77474  Biso   1.000  H 
  H41      1.0000 0.61105  0.75902  0.90864  Biso   1.000  H 
  H42      1.0000 0.79906  0.93135  0.70185  Biso   1.000  H 
  H43      1.0000 0.40006  0.16915  0.81814  Biso   1.000  H 
  H44      1.0000 0.38564  0.48898  0.88486  Biso   1.000  H 
  H45      1.0000 0.20528  0.42099  0.77270  Biso   1.000  H 
  H46      1.0000 0.90717  0.42273  0.30281  Biso   1.000  H 
  H47      1.0000 0.67660  0.33071  0.22244  Biso   1.000  H 
  H48      1.0000 0.78992  0.20596  0.46587  Biso   1.000  H 
  H49      1.0000 0.20749  0.44047  0.31336  Biso   1.000  H 
  H50      1.0000 0.29373  0.17634  0.40809  Biso   1.000  H 
  H51      1.0000 0.39146  0.11622  0.21754  Biso   1.000  H 
  H52      1.0000 0.71429  0.17537  0.82948  Biso   1.000  H 
  H53      1.0000 0.93406  0.28200  0.70050  Biso   1.000  H 
  H54      1.0000 0.82664  0.39607  0.92679  Biso   1.000  H 
  H55      1.0000 0.16243  0.72219  0.82591  Biso   1.000  H 
  H56      1.0000 0.24898  0.95167  0.70484  Biso   1.000  H 
  H57      1.0000 0.39467  0.83303  0.94985  Biso   1.000  H 
  H58      1.0000 0.71236  0.94851  0.29310  Biso   1.000  H 
  H59      1.0000 0.91292  0.80780  0.39427  Biso   1.000  H 
  H60      1.0000 0.83495  0.71010  0.14656  Biso   1.000  H 
  H61      1.0000 0.95081  0.40105  0.82561  Biso   1.000  H 
  H62      1.0000 0.82032  0.16251  0.70406  Biso   1.000  H 
  H63      1.0000 0.71863  0.28721  0.95019  Biso   1.000  H 
  H64      1.0000 0.39967  0.24297  0.12468  Biso   1.000  H 
  H65      1.0000 0.17285  0.28767  0.39551  Biso   1.000  H 
  H66      1.0000 0.33472  0.47436  0.19950  Biso   1.000  H 
  H67      1.0000 0.93401  0.70228  0.27877  Biso   1.000  H 
  H68      1.0000 0.78766  0.91386  0.41664  Biso   1.000  H 
  H69      1.0000 0.71163  0.82072  0.18813  Biso   1.000  H 
  H70      1.0000 0.39120  0.96074  0.84577  Biso   1.000  H 
  H71      1.0000 0.13577  0.83287  0.69176  Biso   1.000  H 
  H72      1.0000 0.27916  0.71762  0.92959  Biso   1.000  H 
  Zn1      1.0000 0.05034  0.54381  0.29707  Biso   1.000  Zn
  Zn2      1.0000 0.29378  0.05269  0.55742  Biso   1.000  Zn
  Zn3      1.0000 0.55823  0.30817  0.06146  Biso   1.000  Zn
  Zn4      1.0000 0.54765  0.06298  0.81604  Biso   1.000  Zn
  Zn5      1.0000 0.05007  0.30139  0.54637  Biso   1.000  Zn
  Zn6      1.0000 0.80557  0.55358  0.04292  Biso   1.000  Zn
  Zn7      1.0000 0.05489  0.54632  0.79593  Biso   1.000  Zn
  Zn8      1.0000 0.55673  0.80925  0.06547  Biso   1.000  Zn
  Zn9      1.0000 0.56254  0.05590  0.31113  Biso   1.000  Zn
  Zn10     1.0000 0.04873  0.79478  0.53831  Biso   1.000  Zn
  Zn11     1.0000 0.79691  0.04500  0.55104  Biso   1.000  Zn
  Zn12     1.0000 0.30987  0.56296  0.04492  Biso   1.000  Zn
  C1       1.0000 0.66356  0.06104  0.66836  Biso   1.000  C 
  C2       1.0000 0.68247  0.68155  0.06003  Biso   1.000  C 
  C3       1.0000 0.05265  0.65518  0.66358  Biso   1.000  C 
  C4       1.0000 0.05097  0.67031  0.42327  Biso   1.000  C 
  C5       1.0000 0.44237  0.67820  0.06289  Biso   1.000  C 
  C6       1.0000 0.42880  0.06095  0.44187  Biso   1.000  C 
  C7       1.0000 0.67662  0.05818  0.43208  Biso   1.000  C 
  C8       1.0000 0.69008  0.42978  0.06155  Biso   1.000  C 
  C9       1.0000 0.04292  0.43449  0.43418  Biso   1.000  C 
  C10      1.0000 0.04826  0.42848  0.67472  Biso   1.000  C 
  C11      1.0000 0.42683  0.43706  0.06386  Biso   1.000  C 
  C12      1.0000 0.42074  0.04494  0.67691  Biso   1.000  C 
  C13      1.0000 0.16576  0.55012  0.16433  Biso   1.000  C 
  C14      1.0000 0.16891  0.17769  0.54963  Biso   1.000  C 
  C15      1.0000 0.56491  0.19339  0.19750  Biso   1.000  C 
  C16      1.0000 0.55943  0.18989  0.93423  Biso   1.000  C 
  C17      1.0000 0.94308  0.15580  0.55536  Biso   1.000  C 
  C18      1.0000 0.92262  0.56205  0.92634  Biso   1.000  C 
  C19      1.0000 0.18117  0.55394  0.91598  Biso   1.000  C 
  C20      1.0000 0.17119  0.93134  0.52881  Biso   1.000  C 
  C21      1.0000 0.55233  0.94167  0.93965  Biso   1.000  C 
  C22      1.0000 0.55849  0.93170  0.18733  Biso   1.000  C 
  C23      1.0000 0.92763  0.92402  0.54483  Biso   1.000  C 
  C24      1.0000 0.93909  0.54974  0.15691  Biso   1.000  C 
  C25      1.0000 0.69173  0.97292  0.76005  Biso   1.000  C 
  C26      1.0000 0.69625  0.65682  0.93880  Biso   1.000  C 
  C27      1.0000 0.94637  0.72656  0.66894  Biso   1.000  C 
  C28      1.0000 0.17535  0.63507  0.40154  Biso   1.000  C 
  C29      1.0000 0.40045  0.77108  0.14309  Biso   1.000  C 
  C30      1.0000 0.37273  0.94587  0.42987  Biso   1.000  C 
  C31      1.0000 0.68047  0.18017  0.38465  Biso   1.000  C 
  C32      1.0000 0.75420  0.41653  0.17141  Biso   1.000  C 
  C33      1.0000 0.95188  0.34484  0.40402  Biso   1.000  C 
  C34      1.0000 0.16260  0.36117  0.65983  Biso   1.000  C 
  C35      1.0000 0.46200  0.40377  0.94408  Biso   1.000  C 
  C36      1.0000 0.33045  0.13597  0.70793  Biso   1.000  C 
  C37      1.0000 0.43503  0.95227  0.37478  Biso   1.000  C 
  C38      1.0000 0.34025  0.71120  0.14078  Biso   1.000  C 
  C39      1.0000 0.17380  0.69165  0.46103  Biso   1.000  C 
  C40      1.0000 0.93776  0.66612  0.72421  Biso   1.000  C 
  C41      1.0000 0.64570  0.71893  0.94736  Biso   1.000  C 
  C42      1.0000 0.74566  0.96805  0.70280  Biso   1.000  C 
  C43      1.0000 0.38965  0.13273  0.76559  Biso   1.000  C 
  C44      1.0000 0.40175  0.45805  0.93879  Biso   1.000  C 
  C45      1.0000 0.16340  0.40816  0.72701  Biso   1.000  C 
  C46      1.0000 0.94786  0.40626  0.34956  Biso   1.000  C 
  C47      1.0000 0.69182  0.36459  0.16977  Biso   1.000  C 
  C48      1.0000 0.73968  0.16988  0.44038  Biso   1.000  C 
  C49      1.0000 0.20694  0.47183  0.25559  Biso   1.000  C 
  C50      1.0000 0.24834  0.18828  0.44916  Biso   1.000  C 
  C51      1.0000 0.44678  0.14971  0.20306  Biso   1.000  C 
  C52      1.0000 0.66990  0.19097  0.87209  Biso   1.000  C 
  C53      1.0000 0.92492  0.23297  0.65512  Biso   1.000  C 
  C54      1.0000 0.86382  0.44979  0.91122  Biso   1.000  C 
  C55      1.0000 0.17741  0.66792  0.85915  Biso   1.000  C 
  C56      1.0000 0.21206  0.93251  0.65350  Biso   1.000  C 
  C57      1.0000 0.44588  0.87241  0.93383  Biso   1.000  C 
  C58      1.0000 0.66461  0.92046  0.25495  Biso   1.000  C 
  C59      1.0000 0.90322  0.84994  0.43974  Biso   1.000  C 
  C60      1.0000 0.87420  0.66237  0.16482  Biso   1.000  C 
  C61      1.0000 0.92822  0.44982  0.85885  Biso   1.000  C 
  C62      1.0000 0.86695  0.17554  0.65826  Biso   1.000  C 
  C63      1.0000 0.67643  0.24158  0.93739  Biso   1.000  C 
  C64      1.0000 0.44644  0.21285  0.15442  Biso   1.000  C 
  C65      1.0000 0.18828  0.24483  0.44212  Biso   1.000  C 
  C66      1.0000 0.27060  0.48641  0.20662  Biso   1.000  C 
  C67      1.0000 0.92659  0.65761  0.22918  Biso   1.000  C 
  C68      1.0000 0.84535  0.90743  0.44796  Biso   1.000  C 
  C69      1.0000 0.66833  0.86289  0.19837  Biso   1.000  C 
  C70      1.0000 0.44240  0.93776  0.88110  Biso   1.000  C 
  C71      1.0000 0.15516  0.87517  0.64455  Biso   1.000  C 
  C72      1.0000 0.23989  0.66746  0.91313  Biso   1.000  C 
