data_image0
_cell_length_a       17.014
_cell_length_b       17.014
_cell_length_c       17.014
_cell_angle_alpha    90
_cell_angle_beta     90
_cell_angle_gamma    90

_symmetry_space_group_name_H-M    "P 1"
_symmetry_int_tables_number       1

loop_
  _symmetry_equiv_pos_as_xyz
  'x, y, z'

loop_
  _atom_site_label
  _atom_site_occupancy
  _atom_site_fract_x
  _atom_site_fract_y
  _atom_site_fract_z
  _atom_site_thermal_displace_type
  _atom_site_B_iso_or_equiv
  _atom_site_type_symbol
  H1       1.0000 0.56162  0.37983  0.97376  Biso   1.000  H 
  H2       1.0000 0.98073  0.03335  0.61411  Biso   1.000  H 
  H3       1.0000 0.56137  0.00732  0.44380  Biso   1.000  H 
  H4       1.0000 0.73397  0.30635  0.89992  Biso   1.000  H 
  H5       1.0000 0.78580  0.86866  0.71338  Biso   1.000  H 
  H6       1.0000 0.01407  0.45832  0.62989  Biso   1.000  H 
  H7       1.0000 0.52687  0.61924  0.80550  Biso   1.000  H 
  H8       1.0000 0.13185  0.72835  0.65185  Biso   1.000  H 
  H9       1.0000 0.88001  0.85723  0.60714  Biso   1.000  H 
  H10      1.0000 0.64764  0.57302  0.93503  Biso   1.000  H 
  H11      1.0000 0.69660  0.08527  0.77771  Biso   1.000  H 
  H12      1.0000 0.69542  0.02668  0.38938  Biso   1.000  H 
  H13      1.0000 0.78212  0.15625  0.95483  Biso   1.000  H 
  H14      1.0000 0.46739  0.88313  0.79289  Biso   1.000  H 
  H15      1.0000 0.92075  0.54338  0.77691  Biso   1.000  H 
  H16      1.0000 0.31957  0.88034  0.72490  Biso   1.000  H 
  H17      1.0000 0.28239  0.56062  0.83409  Biso   1.000  H 
  H18      1.0000 0.65545  0.88202  0.07062  Biso   1.000  H 
  H19      1.0000 0.78729  0.64195  0.81980  Biso   1.000  H 
  H20      1.0000 0.64380  0.04558  0.13044  Biso   1.000  H 
  H21      1.0000 0.75650  0.07945  0.63008  Biso   1.000  H 
  H22      1.0000 0.97670  0.90803  0.76339  Biso   1.000  H 
  H23      1.0000 0.59019  0.31507  0.80190  Biso   1.000  H 
  H24      1.0000 0.61731  0.06282  0.57050  Biso   1.000  H 
  N1       1.0000 0.86998  0.77619  0.75045  Biso   1.000  N 
  N2       1.0000 0.76726  0.59432  0.96933  Biso   1.000  N 
  N3       1.0000 0.13486  0.81543  0.74495  Biso   1.000  N 
  N4       1.0000 0.80825  0.96875  0.36635  Biso   1.000  N 
  N5       1.0000 0.50130  0.66616  0.92034  Biso   1.000  N 
  N6       1.0000 0.54141  0.90567  0.36313  Biso   1.000  N 
  N7       1.0000 0.74336  0.20037  0.74830  Biso   1.000  N 
  N8       1.0000 0.75491  0.40186  0.98284  Biso   1.000  N 
  N9       1.0000 0.96727  0.96436  0.51061  Biso   1.000  N 
  N10      1.0000 0.93793  0.53694  0.57375  Biso   1.000  N 
  N11      1.0000 0.53810  0.25975  0.95868  Biso   1.000  N 
  N12      1.0000 0.80656  0.75978  0.57224  Biso   1.000  N 
  N13      1.0000 0.52859  0.89720  0.49716  Biso   1.000  N 
  N14      1.0000 0.46449  0.54340  0.88176  Biso   1.000  N 
  N15      1.0000 0.69629  0.94604  0.28909  Biso   1.000  N 
  N16      1.0000 0.14043  0.68392  0.76883  Biso   1.000  N 
  N17      1.0000 0.68347  0.69927  0.94502  Biso   1.000  N 
  N18      1.0000 0.84454  0.88324  0.82375  Biso   1.000  N 
  N19      1.0000 0.79631  0.88051  0.51912  Biso   1.000  N 
  N20      1.0000 0.45523  0.35254  0.90614  Biso   1.000  N 
  N21      1.0000 0.03593  0.58080  0.65782  Biso   1.000  N 
  N22      1.0000 0.06738  0.93853  0.59329  Biso   1.000  N 
  N23      1.0000 0.70122  0.28698  0.02200  Biso   1.000  N 
  N24      1.0000 0.82190  0.09268  0.77545  Biso   1.000  N 
  N25      1.0000 0.20842  0.49716  0.75262  Biso   1.000  N 
  N26      1.0000 0.97033  0.00272  0.84078  Biso   1.000  N 
  N27      1.0000 0.55120  0.05462  0.21405  Biso   1.000  N 
  N28      1.0000 0.51180  0.04201  0.63105  Biso   1.000  N 
  N29      1.0000 0.77437  0.51343  0.81086  Biso   1.000  N 
  N30      1.0000 0.92740  0.49140  0.89300  Biso   1.000  N 
  N31      1.0000 0.61450  0.33145  0.68179  Biso   1.000  N 
  N32      1.0000 0.24189  0.94126  0.64429  Biso   1.000  N 
  N33      1.0000 0.56914  0.81262  0.82289  Biso   1.000  N 
  N34      1.0000 0.55533  0.88502  0.15410  Biso   1.000  N 
  N35      1.0000 0.66866  0.10149  0.98117  Biso   1.000  N 
  N36      1.0000 0.81168  0.09189  0.51336  Biso   1.000  N 
  N37      1.0000 0.03967  0.52036  0.82862  Biso   1.000  N 
  N38      1.0000 0.79175  0.59180  0.70164  Biso   1.000  N 
  N39      1.0000 0.58191  0.15422  0.65205  Biso   1.000  N 
  N40      1.0000 0.57180  0.15152  0.12738  Biso   1.000  N 
  N41      1.0000 0.07418  0.99185  0.76101  Biso   1.000  N 
  N42      1.0000 0.33025  0.44907  0.78353  Biso   1.000  N 
  N43      1.0000 0.74450  0.19041  0.57014  Biso   1.000  N 
  N44      1.0000 0.77173  0.03177  0.93060  Biso   1.000  N 
  N45      1.0000 0.54860  0.82428  0.03385  Biso   1.000  N 
  N46      1.0000 0.54503  0.86154  0.69994  Biso   1.000  N 
  N47      1.0000 0.37293  0.92385  0.61420  Biso   1.000  N 
  N48      1.0000 0.51414  0.39674  0.74101  Biso   1.000  N 
  H25      1.0000 0.95847  0.72385  0.82590  Biso   1.000  H 
  H26      1.0000 0.85721  0.65688  0.03005  Biso   1.000  H 
  H27      1.0000 0.13914  0.85712  0.86344  Biso   1.000  H 
  H28      1.0000 0.88471  0.89461  0.29691  Biso   1.000  H 
  H29      1.0000 0.46298  0.66066  0.03962  Biso   1.000  H 
  H30      1.0000 0.51952  0.77901  0.34180  Biso   1.000  H 
  H31      1.0000 0.84373  0.28104  0.70918  Biso   1.000  H 
  H32      1.0000 0.76308  0.45750  0.09781  Biso   1.000  H 
  H33      1.0000 0.97900  0.86020  0.43929  Biso   1.000  H 
  H34      1.0000 0.90524  0.65859  0.53295  Biso   1.000  H 
  H35      1.0000 0.47101  0.15828  0.91069  Biso   1.000  H 
  H36      1.0000 0.72455  0.70036  0.49762  Biso   1.000  H 
  H37      1.0000 0.51796  0.76738  0.50275  Biso   1.000  H 
  H38      1.0000 0.41331  0.50728  0.99239  Biso   1.000  H 
  H39      1.0000 0.75683  0.86717  0.20746  Biso   1.000  H 
  H40      1.0000 0.13814  0.69469  0.90107  Biso   1.000  H 
  H41      1.0000 0.76638  0.79172  0.98334  Biso   1.000  H 
  H42      1.0000 0.91027  0.85563  0.92145  Biso   1.000  H 
  H43      1.0000 0.70936  0.85230  0.43182  Biso   1.000  H 
  H44      1.0000 0.37383  0.27486  0.85306  Biso   1.000  H 
  H45      1.0000 0.00511  0.70403  0.63998  Biso   1.000  H 
  H46      1.0000 0.10947  0.82920  0.53763  Biso   1.000  H 
  H47      1.0000 0.68912  0.31014  0.14570  Biso   1.000  H 
  H48      1.0000 0.93132  0.14951  0.76082  Biso   1.000  H 
  H49      1.0000 0.17434  0.39865  0.67898  Biso   1.000  H 
  H50      1.0000 0.01268  0.11690  0.89325  Biso   1.000  H 
  H51      1.0000 0.45685  0.10889  0.28214  Biso   1.000  H 
  H52      1.0000 0.41348  0.06854  0.70792  Biso   1.000  H 
  H53      1.0000 0.75414  0.40246  0.74838  Biso   1.000  H 
  H54      1.0000 0.98188  0.44524  0.00248  Biso   1.000  H 
  H55      1.0000 0.61766  0.38560  0.56935  Biso   1.000  H 
  H56      1.0000 0.20960  0.00899  0.54628  Biso   1.000  H 
  H57      1.0000 0.68140  0.75474  0.78994  Biso   1.000  H 
  H58      1.0000 0.43363  0.87522  0.18199  Biso   1.000  H 
  H59      1.0000 0.58285  0.00863  0.98133  Biso   1.000  H 
  H60      1.0000 0.84067  0.15878  0.40623  Biso   1.000  H 
  H61      1.0000 0.12249  0.48056  0.91471  Biso   1.000  H 
  H62      1.0000 0.79626  0.50583  0.61650  Biso   1.000  H 
  H63      1.0000 0.49739  0.20640  0.72981  Biso   1.000  H 
  H64      1.0000 0.46891  0.22341  0.16670  Biso   1.000  H 
  H65      1.0000 0.13308  0.10403  0.79371  Biso   1.000  H 
  H66      1.0000 0.32629  0.35051  0.70760  Biso   1.000  H 
  H67      1.0000 0.76440  0.28162  0.47810  Biso   1.000  H 
  H68      1.0000 0.70963  0.91523  0.91554  Biso   1.000  H 
  H69      1.0000 0.42928  0.79418  0.02322  Biso   1.000  H 
  H70      1.0000 0.64837  0.80628  0.64446  Biso   1.000  H 
  H71      1.0000 0.36899  0.98529  0.50380  Biso   1.000  H 
  H72      1.0000 0.48592  0.46563  0.63651  Biso   1.000  H 
  Zn1      1.0000 0.85244  0.98119  0.48325  Biso   1.000  Zn
  Zn2      1.0000 0.49489  0.92622  0.61082  Biso   1.000  Zn
  Zn3      1.0000 0.61580  0.20405  0.02430  Biso   1.000  Zn
  Zn4      1.0000 0.85179  0.69012  0.66012  Biso   1.000  Zn
  Zn5      1.0000 0.66962  0.22866  0.65764  Biso   1.000  Zn
  Zn6      1.0000 0.80749  0.49015  0.92428  Biso   1.000  Zn
  Zn7      1.0000 0.11857  0.56784  0.75156  Biso   1.000  Zn
  Zn8      1.0000 0.57455  0.76246  0.93053  Biso   1.000  Zn
  Zn9      1.0000 0.58557  0.95046  0.25571  Biso   1.000  Zn
  Zn10     1.0000 0.13871  0.92321  0.68983  Biso   1.000  Zn
  Zn11     1.0000 0.85193  0.00291  0.84989  Biso   1.000  Zn
  Zn12     1.0000 0.43994  0.44023  0.82561  Biso   1.000  Zn
  C1       1.0000 0.82978  0.84636  0.75263  Biso   1.000  C 
  C2       1.0000 0.69616  0.61839  0.94384  Biso   1.000  C 
  C3       1.0000 0.13678  0.74374  0.71381  Biso   1.000  C 
  C4       1.0000 0.72935  0.98514  0.35136  Biso   1.000  C 
  C5       1.0000 0.49982  0.61111  0.86163  Biso   1.000  C 
  C6       1.0000 0.53952  0.94533  0.43355  Biso   1.000  C 
  C7       1.0000 0.74715  0.12372  0.77012  Biso   1.000  C 
  C8       1.0000 0.72535  0.33065  0.95913  Biso   1.000  C 
  C9       1.0000 0.00501  0.98524  0.57897  Biso   1.000  C 
  C10      1.0000 0.00028  0.51766  0.61848  Biso   1.000  C 
  C11      1.0000 0.52115  0.33696  0.95140  Biso   1.000  C 
  C12      1.0000 0.82743  0.83622  0.57771  Biso   1.000  C 
  C13      1.0000 0.27555  0.50697  0.79409  Biso   1.000  C 
  C14      1.0000 0.00772  0.95948  0.78597  Biso   1.000  C 
  C15      1.0000 0.59467  0.08089  0.15477  Biso   1.000  C 
  C16      1.0000 0.57704  0.08577  0.61224  Biso   1.000  C 
  C17      1.0000 0.78376  0.58947  0.78331  Biso   1.000  C 
  C18      1.0000 0.95855  0.52067  0.82349  Biso   1.000  C 
  C19      1.0000 0.57172  0.33778  0.74831  Biso   1.000  C 
  C20      1.0000 0.31455  0.91257  0.66917  Biso   1.000  C 
  C21      1.0000 0.52382  0.85876  0.77608  Biso   1.000  C 
  C22      1.0000 0.59741  0.86285  0.08748  Biso   1.000  C 
  C23      1.0000 0.74679  0.10224  0.95712  Biso   1.000  C 
  C24      1.0000 0.76464  0.11392  0.57521  Biso   1.000  C 
  C25      1.0000 0.91434  0.76753  0.81879  Biso   1.000  C 
  C26      1.0000 0.80275  0.66298  0.99487  Biso   1.000  C 
  C27      1.0000 0.13493  0.80374  0.82502  Biso   1.000  C 
  C28      1.0000 0.82777  0.92007  0.30422  Biso   1.000  C 
  C29      1.0000 0.46671  0.63027  0.98167  Biso   1.000  C 
  C30      1.0000 0.53358  0.82613  0.38438  Biso   1.000  C 
  C31      1.0000 0.82670  0.22184  0.73707  Biso   1.000  C 
  C32      1.0000 0.74106  0.40576  0.06242  Biso   1.000  C 
  C33      1.0000 0.00322  0.89475  0.48703  Biso   1.000  C 
  C34      1.0000 0.93435  0.61703  0.57541  Biso   1.000  C 
  C35      1.0000 0.48032  0.22128  0.91395  Biso   1.000  C 
  C36      1.0000 0.75391  0.75612  0.51008  Biso   1.000  C 
  C37      1.0000 0.52655  0.82083  0.46577  Biso   1.000  C 
  C38      1.0000 0.44187  0.55476  0.95831  Biso   1.000  C 
  C39      1.0000 0.75960  0.90208  0.25924  Biso   1.000  C 
  C40      1.0000 0.13886  0.72220  0.84147  Biso   1.000  C 
  C41      1.0000 0.75223  0.72587  0.97935  Biso   1.000  C 
  C42      1.0000 0.89798  0.83545  0.86389  Biso   1.000  C 
  C43      1.0000 0.74684  0.82968  0.47773  Biso   1.000  C 
  C44      1.0000 0.42970  0.27739  0.88307  Biso   1.000  C 
  C45      1.0000 0.99419  0.64409  0.62905  Biso   1.000  C 
  C46      1.0000 0.06986  0.88249  0.53458  Biso   1.000  C 
  C47      1.0000 0.70790  0.33381  0.08701  Biso   1.000  C 
  C48      1.0000 0.86889  0.15575  0.75413  Biso   1.000  C 
  C49      1.0000 0.22012  0.42653  0.71349  Biso   1.000  C 
  C50      1.0000 0.01720  0.07077  0.85144  Biso   1.000  C 
  C51      1.0000 0.49531  0.11114  0.22827  Biso   1.000  C 
  C52      1.0000 0.47184  0.08676  0.68454  Biso   1.000  C 
  C53      1.0000 0.77012  0.46502  0.74421  Biso   1.000  C 
  C54      1.0000 0.99091  0.47301  0.94285  Biso   1.000  C 
  C55      1.0000 0.58641  0.38173  0.62630  Biso   1.000  C 
  C56      1.0000 0.25653  0.97597  0.56926  Biso   1.000  C 
  C57      1.0000 0.62704  0.78114  0.77032  Biso   1.000  C 
  C58      1.0000 0.47928  0.86050  0.13942  Biso   1.000  C 
  C59      1.0000 0.64258  0.02550  0.96602  Biso   1.000  C 
  C60      1.0000 0.81274  0.15935  0.46662  Biso   1.000  C 
  C61      1.0000 0.05896  0.49365  0.90177  Biso   1.000  C 
  C62      1.0000 0.78307  0.51541  0.67824  Biso   1.000  C 
  C63      1.0000 0.51465  0.15371  0.69903  Biso   1.000  C 
  C64      1.0000 0.50745  0.17114  0.17197  Biso   1.000  C 
  C65      1.0000 0.07936  0.06587  0.79841  Biso   1.000  C 
  C66      1.0000 0.29287  0.39835  0.73457  Biso   1.000  C 
  C67      1.0000 0.77216  0.22186  0.50091  Biso   1.000  C 
  C68      1.0000 0.70737  0.97982  0.93738  Biso   1.000  C 
  C69      1.0000 0.47507  0.82395  0.06621  Biso   1.000  C 
  C70      1.0000 0.61418  0.81272  0.69615  Biso   1.000  C 
  C71      1.0000 0.33665  0.96918  0.55698  Biso   1.000  C 
  C72      1.0000 0.52315  0.41983  0.66230  Biso   1.000  C 
