data_image0
_cell_length_a       17.014
_cell_length_b       17.014
_cell_length_c       17.014
_cell_angle_alpha    90
_cell_angle_beta     90
_cell_angle_gamma    90

_symmetry_space_group_name_H-M    "P 1"
_symmetry_int_tables_number       1

loop_
  _symmetry_equiv_pos_as_xyz
  'x, y, z'

loop_
  _atom_site_label
  _atom_site_occupancy
  _atom_site_fract_x
  _atom_site_fract_y
  _atom_site_fract_z
  _atom_site_thermal_displace_type
  _atom_site_B_iso_or_equiv
  _atom_site_type_symbol
  H1       1.0000 0.49037  0.32716  0.93301  Biso   1.000  H 
  H2       1.0000 0.79362  0.91794  0.47856  Biso   1.000  H 
  H3       1.0000 0.38848  0.93794  0.38074  Biso   1.000  H 
  H4       1.0000 0.64329  0.43538  0.05595  Biso   1.000  H 
  H5       1.0000 0.76213  0.96089  0.75204  Biso   1.000  H 
  H6       1.0000 0.11171  0.43071  0.74334  Biso   1.000  H 
  H7       1.0000 0.42247  0.54668  0.03869  Biso   1.000  H 
  H8       1.0000 0.02370  0.59810  0.68041  Biso   1.000  H 
  H9       1.0000 0.44721  0.93583  0.67756  Biso   1.000  H 
  H10      1.0000 0.65293  0.67444  0.98176  Biso   1.000  H 
  H11      1.0000 0.95601  0.84866  0.56043  Biso   1.000  H 
  H12      1.0000 0.71481  0.94008  0.30742  Biso   1.000  H 
  H13      1.0000 0.03578  0.10894  0.61536  Biso   1.000  H 
  H14      1.0000 0.50413  0.91007  0.94662  Biso   1.000  H 
  H15      1.0000 0.86270  0.48198  0.94297  Biso   1.000  H 
  H16      1.0000 0.16365  0.93304  0.58743  Biso   1.000  H 
  H17      1.0000 0.20230  0.51336  0.87118  Biso   1.000  H 
  H18      1.0000 0.52783  0.79035  0.17703  Biso   1.000  H 
  H19      1.0000 0.02230  0.76829  0.39954  Biso   1.000  H 
  H20      1.0000 0.51328  0.11857  0.17759  Biso   1.000  H 
  H21      1.0000 0.75168  0.71628  0.19332  Biso   1.000  H 
  H22      1.0000 0.19751  0.10887  0.68132  Biso   1.000  H 
  H23      1.0000 0.18311  0.29461  0.89150  Biso   1.000  H 
  H24      1.0000 0.58273  0.08372  0.97227  Biso   1.000  H 
  N1       1.0000 0.65829  0.99350  0.68913  Biso   1.000  N 
  N2       1.0000 0.66818  0.60962  0.09515  Biso   1.000  N 
  N3       1.0000 0.13036  0.66704  0.67060  Biso   1.000  N 
  N4       1.0000 0.72257  0.82235  0.35286  Biso   1.000  N 
  N5       1.0000 0.41864  0.64164  0.95018  Biso   1.000  N 
  N6       1.0000 0.47879  0.01473  0.35379  Biso   1.000  N 
  N7       1.0000 0.03878  0.82728  0.65062  Biso   1.000  N 
  N8       1.0000 0.76444  0.44400  0.09487  Biso   1.000  N 
  N9       1.0000 0.88378  0.90583  0.39157  Biso   1.000  N 
  N10      1.0000 0.02966  0.34919  0.70297  Biso   1.000  N 
  N11      1.0000 0.50916  0.28772  0.05615  Biso   1.000  N 
  N12      1.0000 0.39017  0.04870  0.66092  Biso   1.000  N 
  N13      1.0000 0.40494  0.04252  0.46117  Biso   1.000  N 
  N14      1.0000 0.38380  0.51717  0.91976  Biso   1.000  N 
  N15      1.0000 0.60658  0.87290  0.30736  Biso   1.000  N 
  N16      1.0000 0.08970  0.61498  0.78906  Biso   1.000  N 
  N17      1.0000 0.55796  0.67434  0.05909  Biso   1.000  N 
  N18      1.0000 0.77025  0.99639  0.62281  Biso   1.000  N 
  N19      1.0000 0.48748  0.03450  0.75050  Biso   1.000  N 
  N20      1.0000 0.40331  0.35604  0.01643  Biso   1.000  N 
  N21      1.0000 0.98945  0.45367  0.77767  Biso   1.000  N 
  N22      1.0000 0.90272  0.98608  0.49405  Biso   1.000  N 
  N23      1.0000 0.70341  0.32086  0.08552  Biso   1.000  N 
  N24      1.0000 0.95102  0.92493  0.66338  Biso   1.000  N 
  N25      1.0000 0.09791  0.48000  0.93036  Biso   1.000  N 
  N26      1.0000 0.24929  0.11664  0.56303  Biso   1.000  N 
  N27      1.0000 0.60777  0.04364  0.20291  Biso   1.000  N 
  N28      1.0000 0.61870  0.10345  0.84968  Biso   1.000  N 
  N29      1.0000 0.00835  0.70764  0.51251  Biso   1.000  N 
  N30      1.0000 0.83460  0.59543  0.99581  Biso   1.000  N 
  N31      1.0000 0.29206  0.33961  0.84271  Biso   1.000  N 
  N32      1.0000 0.19762  0.81036  0.56246  Biso   1.000  N 
  N33      1.0000 0.51781  0.79354  0.90174  Biso   1.000  N 
  N34      1.0000 0.47161  0.89867  0.18564  Biso   1.000  N 
  N35      1.0000 0.02255  0.16586  0.73298  Biso   1.000  N 
  N36      1.0000 0.83712  0.62708  0.17542  Biso   1.000  N 
  N37      1.0000 0.93068  0.58505  0.90503  Biso   1.000  N 
  N38      1.0000 0.90160  0.74499  0.43825  Biso   1.000  N 
  N39      1.0000 0.64646  0.19083  0.94858  Biso   1.000  N 
  N40      1.0000 0.62454  0.14748  0.12212  Biso   1.000  N 
  N41      1.0000 0.15968  0.20275  0.61250  Biso   1.000  N 
  N42      1.0000 0.22011  0.43323  0.97402  Biso   1.000  N 
  N43      1.0000 0.86270  0.72810  0.25731  Biso   1.000  N 
  N44      1.0000 0.92082  0.09878  0.67434  Biso   1.000  N 
  N45      1.0000 0.44623  0.81712  0.08134  Biso   1.000  N 
  N46      1.0000 0.57300  0.89224  0.83337  Biso   1.000  N 
  N47      1.0000 0.28342  0.91851  0.54574  Biso   1.000  N 
  N48      1.0000 0.20095  0.28442  0.76486  Biso   1.000  N 
  H25      1.0000 0.57983  0.03558  0.59196  Biso   1.000  H 
  H26      1.0000 0.62452  0.55345  0.20105  Biso   1.000  H 
  H27      1.0000 0.23803  0.72819  0.72110  Biso   1.000  H 
  H28      1.0000 0.67333  0.70612  0.38140  Biso   1.000  H 
  H29      1.0000 0.39974  0.69603  0.84022  Biso   1.000  H 
  H30      1.0000 0.56950  0.10378  0.36862  Biso   1.000  H 
  H31      1.0000 0.11323  0.84946  0.74807  Biso   1.000  H 
  H32      1.0000 0.87516  0.39890  0.13820  Biso   1.000  H 
  H33      1.0000 0.98668  0.92593  0.32353  Biso   1.000  H 
  H34      1.0000 0.90917  0.30086  0.68286  Biso   1.000  H 
  H35      1.0000 0.48547  0.28222  0.18107  Biso   1.000  H 
  H36      1.0000 0.36326  0.16885  0.68478  Biso   1.000  H 
  H37      1.0000 0.46990  0.14170  0.50683  Biso   1.000  H 
  H38      1.0000 0.35967  0.54314  0.79478  Biso   1.000  H 
  H39      1.0000 0.53585  0.76050  0.31110  Biso   1.000  H 
  H40      1.0000 0.18710  0.65468  0.86198  Biso   1.000  H 
  H41      1.0000 0.48819  0.64212  0.16248  Biso   1.000  H 
  H42      1.0000 0.73253  0.03813  0.51550  Biso   1.000  H 
  H43      1.0000 0.47858  0.15301  0.79515  Biso   1.000  H 
  H44      1.0000 0.34384  0.35847  0.12747  Biso   1.000  H 
  H45      1.0000 0.86758  0.42947  0.78583  Biso   1.000  H 
  H46      1.0000 0.02170  0.02658  0.45903  Biso   1.000  H 
  H47      1.0000 0.80257  0.25282  0.11830  Biso   1.000  H 
  H48      1.0000 0.00508  0.97991  0.76691  Biso   1.000  H 
  H49      1.0000 0.03217  0.41688  0.02270  Biso   1.000  H 
  H50      1.0000 0.26180  0.16660  0.44837  Biso   1.000  H 
  H51      1.0000 0.72160  0.98798  0.17296  Biso   1.000  H 
  H52      1.0000 0.68210  0.17272  0.75997  Biso   1.000  H 
  H53      1.0000 0.93216  0.65666  0.61244  Biso   1.000  H 
  H54      1.0000 0.85157  0.72202  0.01992  Biso   1.000  H 
  H55      1.0000 0.38235  0.36042  0.74977  Biso   1.000  H 
  H56      1.0000 0.28008  0.71985  0.53002  Biso   1.000  H 
  H57      1.0000 0.55549  0.69899  0.82282  Biso   1.000  H 
  H58      1.0000 0.38445  0.99028  0.15771  Biso   1.000  H 
  H59      1.0000 0.96128  0.19874  0.84029  Biso   1.000  H 
  H60      1.0000 0.94929  0.55888  0.19026  Biso   1.000  H 
  H61      1.0000 0.95916  0.71009  0.89604  Biso   1.000  H 
  H62      1.0000 0.81550  0.68374  0.51430  Biso   1.000  H 
  H63      1.0000 0.71171  0.27108  0.88163  Biso   1.000  H 
  H64      1.0000 0.74788  0.13291  0.09800  Biso   1.000  H 
  H65      1.0000 0.14628  0.28703  0.51486  Biso   1.000  H 
  H66      1.0000 0.16790  0.36509  0.07411  Biso   1.000  H 
  H67      1.0000 0.97845  0.68808  0.29439  Biso   1.000  H 
  H68      1.0000 0.84138  0.11068  0.77783  Biso   1.000  H 
  H69      1.0000 0.35560  0.88972  0.02639  Biso   1.000  H 
  H70      1.0000 0.61807  0.82864  0.73525  Biso   1.000  H 
  H71      1.0000 0.38474  0.84427  0.50802  Biso   1.000  H 
  H72      1.0000 0.26748  0.28595  0.65877  Biso   1.000  H 
  Zn1      1.0000 0.83678  0.80179  0.35556  Biso   1.000  Zn
  Zn2      1.0000 0.33027  0.03213  0.55600  Biso   1.000  Zn
  Zn3      1.0000 0.61627  0.23685  0.05368  Biso   1.000  Zn
  Zn4      1.0000 0.58971  0.99748  0.78690  Biso   1.000  Zn
  Zn5      1.0000 0.10381  0.24981  0.69871  Biso   1.000  Zn
  Zn6      1.0000 0.77628  0.56703  0.09309  Biso   1.000  Zn
  Zn7      1.0000 0.02374  0.53508  0.85344  Biso   1.000  Zn
  Zn8      1.0000 0.48440  0.73515  0.00327  Biso   1.000  Zn
  Zn9      1.0000 0.53928  0.96185  0.26386  Biso   1.000  Zn
  Zn10     1.0000 0.09493  0.74788  0.57889  Biso   1.000  Zn
  Zn11     1.0000 0.88561  0.01285  0.60861  Biso   1.000  Zn
  Zn12     1.0000 0.32867  0.40407  0.93873  Biso   1.000  Zn
  C1       1.0000 0.73601  0.97740  0.69215  Biso   1.000  C 
  C2       1.0000 0.63292  0.65799  0.04093  Biso   1.000  C 
  C3       1.0000 0.07460  0.62571  0.71176  Biso   1.000  C 
  C4       1.0000 0.68619  0.88420  0.32064  Biso   1.000  C 
  C5       1.0000 0.40727  0.56580  0.97844  Biso   1.000  C 
  C6       1.0000 0.41755  0.99453  0.39992  Biso   1.000  C 
  C7       1.0000 0.97541  0.86735  0.61932  Biso   1.000  C 
  C8       1.0000 0.69715  0.40381  0.07512  Biso   1.000  C 
  C9       1.0000 0.85538  0.93464  0.45922  Biso   1.000  C 
  C10      1.0000 0.05162  0.40975  0.74372  Biso   1.000  C 
  C11      1.0000 0.47046  0.32010  0.99583  Biso   1.000  C 
  C12      1.0000 0.44823  0.99909  0.69210  Biso   1.000  C 
  C13      1.0000 0.17887  0.47896  0.91881  Biso   1.000  C 
  C14      1.0000 0.20415  0.13707  0.62511  Biso   1.000  C 
  C15      1.0000 0.57489  0.10777  0.17021  Biso   1.000  C 
  C16      1.0000 0.60908  0.12020  0.92713  Biso   1.000  C 
  C17      1.0000 0.98035  0.74182  0.44209  Biso   1.000  C 
  C18      1.0000 0.87657  0.54732  0.94906  Biso   1.000  C 
  C19      1.0000 0.22215  0.30197  0.83979  Biso   1.000  C 
  C20      1.0000 0.20915  0.89199  0.56498  Biso   1.000  C 
  C21      1.0000 0.53099  0.87163  0.90014  Biso   1.000  C 
  C22      1.0000 0.48969  0.83009  0.14611  Biso   1.000  C 
  C23      1.0000 0.99776  0.12312  0.67148  Biso   1.000  C 
  C24      1.0000 0.81140  0.69640  0.20570  Biso   1.000  C 
  C25      1.0000 0.63750  0.02121  0.61490  Biso   1.000  C 
  C26      1.0000 0.61302  0.59576  0.15302  Biso   1.000  C 
  C27      1.0000 0.18453  0.69000  0.73153  Biso   1.000  C 
  C28      1.0000 0.66467  0.76337  0.35605  Biso   1.000  C 
  C29      1.0000 0.39807  0.64235  0.87368  Biso   1.000  C 
  C30      1.0000 0.51368  0.08257  0.39103  Biso   1.000  C 
  C31      1.0000 0.05834  0.86933  0.71741  Biso   1.000  C 
  C32      1.0000 0.81541  0.38253  0.11607  Biso   1.000  C 
  C33      1.0000 0.95797  0.94029  0.38116  Biso   1.000  C 
  C34      1.0000 0.94629  0.34614  0.71106  Biso   1.000  C 
  C35      1.0000 0.46333  0.30225  0.12403  Biso   1.000  C 
  C36      1.0000 0.40557  0.12023  0.69354  Biso   1.000  C 
  C37      1.0000 0.46630  0.09486  0.45764  Biso   1.000  C 
  C38      1.0000 0.38142  0.56433  0.85264  Biso   1.000  C 
  C39      1.0000 0.59417  0.79296  0.32589  Biso   1.000  C 
  C40      1.0000 0.15771  0.65865  0.80212  Biso   1.000  C 
  C41      1.0000 0.54634  0.63856  0.13373  Biso   1.000  C 
  C42      1.0000 0.70875  0.02400  0.57437  Biso   1.000  C 
  C43      1.0000 0.46129  0.11096  0.74912  Biso   1.000  C 
  C44      1.0000 0.39849  0.34423  0.09674  Biso   1.000  C 
  C45      1.0000 0.92409  0.41028  0.76079  Biso   1.000  C 
  C46      1.0000 0.96691  0.99426  0.44281  Biso   1.000  C 
  C47      1.0000 0.78082  0.31209  0.11113  Biso   1.000  C 
  C48      1.0000 0.00856  0.93344  0.72432  Biso   1.000  C 
  C49      1.0000 0.08814  0.43483  0.99908  Biso   1.000  C 
  C50      1.0000 0.23438  0.17529  0.50807  Biso   1.000  C 
  C51      1.0000 0.68680  0.04251  0.17718  Biso   1.000  C 
  C52      1.0000 0.65967  0.17086  0.82020  Biso   1.000  C 
  C53      1.0000 0.94152  0.68084  0.54880  Biso   1.000  C 
  C54      1.0000 0.86524  0.67296  0.98499  Biso   1.000  C 
  C55      1.0000 0.32300  0.34088  0.76840  Biso   1.000  C 
  C56      1.0000 0.27014  0.78188  0.53586  Biso   1.000  C 
  C57      1.0000 0.55357  0.76047  0.83471  Biso   1.000  C 
  C58      1.0000 0.41182  0.93590  0.13742  Biso   1.000  C 
  C59      1.0000 0.95920  0.16757  0.78348  Biso   1.000  C 
  C60      1.0000 0.91243  0.61275  0.20733  Biso   1.000  C 
  C61      1.0000 0.92391  0.66530  0.92784  Biso   1.000  C 
  C62      1.0000 0.87740  0.69698  0.50189  Biso   1.000  C 
  C63      1.0000 0.67944  0.21972  0.88391  Biso   1.000  C 
  C64      1.0000 0.69722  0.10513  0.12643  Biso   1.000  C 
  C65      1.0000 0.17779  0.23128  0.53633  Biso   1.000  C 
  C66      1.0000 0.16256  0.40641  0.02636  Biso   1.000  C 
  C67      1.0000 0.92673  0.67816  0.25666  Biso   1.000  C 
  C68      1.0000 0.89757  0.12278  0.74964  Biso   1.000  C 
  C69      1.0000 0.39963  0.88397  0.07582  Biso   1.000  C 
  C70      1.0000 0.58561  0.82419  0.79196  Biso   1.000  C 
  C71      1.0000 0.32336  0.84616  0.52700  Biso   1.000  C 
  C72      1.0000 0.26405  0.30946  0.71925  Biso   1.000  C 
