data_image0
_cell_length_a       15.4231
_cell_length_b       15.4042
_cell_length_c       18.4379
_cell_angle_alpha    90
_cell_angle_beta     90
_cell_angle_gamma    90

_symmetry_space_group_name_H-M    "P 1"
_symmetry_int_tables_number       1

loop_
  _symmetry_equiv_pos_as_xyz
  'x, y, z'

loop_
  _atom_site_label
  _atom_site_occupancy
  _atom_site_fract_x
  _atom_site_fract_y
  _atom_site_fract_z
  _atom_site_thermal_displace_type
  _atom_site_B_iso_or_equiv
  _atom_site_type_symbol
  C1       1.0000 0.29290  0.18869  0.38477  Biso   1.000  C 
  H1       1.0000 0.30436  0.17139  0.32750  Biso   1.000  H 
  C2       1.0000 0.24480  0.22344  0.49162  Biso   1.000  C 
  H2       1.0000 0.19824  0.23912  0.53329  Biso   1.000  H 
  C3       1.0000 0.33108  0.25106  0.48818  Biso   1.000  C 
  H3       1.0000 0.37833  0.27202  0.52885  Biso   1.000  H 
  C4       1.0000 0.14341  0.00983  0.25610  Biso   1.000  C 
  H4       1.0000 0.20899  0.97857  0.27042  Biso   1.000  H 
  C5       1.0000 0.92129  0.22211  0.38881  Biso   1.000  C 
  H5       1.0000 0.87472  0.16917  0.40127  Biso   1.000  H 
  C6       1.0000 0.03936  0.29396  0.36926  Biso   1.000  C 
  H6       1.0000 0.10339  0.31390  0.38515  Biso   1.000  H 
  C7       1.0000 0.81033  0.03017  0.75174  Biso   1.000  C 
  H7       1.0000 0.78913  0.07152  0.70884  Biso   1.000  H 
  C8       1.0000 0.48833  0.34469  0.24794  Biso   1.000  C 
  H8       1.0000 0.49588  0.39847  0.28499  Biso   1.000  H 
  C9       1.0000 0.11088  0.59186  0.37081  Biso   1.000  C 
  H9       1.0000 0.05199  0.63130  0.37013  Biso   1.000  H 
  C10      1.0000 0.23879  0.54952  0.40414  Biso   1.000  C 
  H10      1.0000 0.30263  0.55120  0.42938  Biso   1.000  H 
  C11      1.0000 0.96883  0.96581  0.54996  Biso   1.000  C 
  H11      1.0000 0.92201  0.92523  0.57779  Biso   1.000  H 
  C12      1.0000 0.82471  0.96493  0.85285  Biso   1.000  C 
  H12      1.0000 0.81054  0.93474  0.90552  Biso   1.000  H 
  N1       1.0000 0.21934  0.18130  0.42720  Biso   1.000  N 
  N2       1.0000 0.35809  0.23213  0.41800  Biso   1.000  N 
  N3       1.0000 0.03259  0.99585  0.59776  Biso   1.000  N 
  N4       1.0000 0.08935  0.05954  0.30202  Biso   1.000  N 
  N5       1.0000 0.00937  0.21886  0.40132  Biso   1.000  N 
  N6       1.0000 0.76286  0.00806  0.81073  Biso   1.000  N 
  N7       1.0000 0.48641  0.26511  0.27796  Biso   1.000  N 
  N8       1.0000 0.18239  0.62089  0.40619  Biso   1.000  N 
  Zn1      1.0000 0.11181  0.10932  0.39846  Biso   1.000  Zn
  Zn2      1.0000 0.47700  0.21908  0.37331  Biso   1.000  Zn
  C13      1.0000 0.15103  0.74366  0.80093  Biso   1.000  C 
  H13      1.0000 0.10668  0.79816  0.79011  Biso   1.000  H 
  C14      1.0000 0.26896  0.67418  0.82592  Biso   1.000  C 
  H14      1.0000 0.34029  0.66341  0.82773  Biso   1.000  H 
  C15      1.0000 0.20306  0.61368  0.82470  Biso   1.000  C 
  H15      1.0000 0.20659  0.54866  0.85063  Biso   1.000  H 
  C16      1.0000 0.62613  0.04570  0.58456  Biso   1.000  C 
  H16      1.0000 0.64642  0.05854  0.52635  Biso   1.000  H 
  C17      1.0000 0.55787  0.84090  0.82797  Biso   1.000  C 
  H17      1.0000 0.62106  0.80622  0.82472  Biso   1.000  H 
  C18      1.0000 0.46609  0.94869  0.85948  Biso   1.000  C 
  H18      1.0000 0.44114  0.00674  0.87539  Biso   1.000  H 
  C19      1.0000 0.86897  0.63986  0.94987  Biso   1.000  C 
  H19      1.0000 0.80926  0.61748  0.92014  Biso   1.000  H 
  C20      1.0000 0.90127  0.75235  0.75753  Biso   1.000  C 
  H20      1.0000 0.89973  0.78685  0.81026  Biso   1.000  H 
  C21      1.0000 0.07341  0.44541  0.90701  Biso   1.000  C 
  H21      1.0000 0.07783  0.48335  0.95754  Biso   1.000  H 
  C22      1.0000 0.06122  0.41667  0.79073  Biso   1.000  C 
  H22      1.0000 0.03334  0.42322  0.73489  Biso   1.000  H 
  C23      1.0000 0.21597  0.84248  0.01236  Biso   1.000  C 
  H23      1.0000 0.14615  0.84410  0.99357  Biso   1.000  H 
  C24      1.0000 0.00593  0.67628  0.97850  Biso   1.000  C 
  H24      1.0000 0.07506  0.69268  0.96181  Biso   1.000  H 
  N9       1.0000 0.23744  0.75862  0.81310  Biso   1.000  N 
  N10      1.0000 0.12760  0.65949  0.80980  Biso   1.000  N 
  N11      1.0000 0.28661  0.85164  0.96407  Biso   1.000  N 
  N12      1.0000 0.56248  0.98176  0.59921  Biso   1.000  N 
  N13      1.0000 0.55405  0.93057  0.84741  Biso   1.000  N 
  N14      1.0000 0.95339  0.64320  0.92317  Biso   1.000  N 
  N15      1.0000 0.93295  0.66879  0.74986  Biso   1.000  N 
  N16      1.0000 0.04195  0.47905  0.84572  Biso   1.000  N 
  Zn3      1.0000 0.28143  0.86664  0.85171  Biso   1.000  Zn
  Zn4      1.0000 0.00803  0.60093  0.82604  Biso   1.000  Zn
  C25      1.0000 0.60122  0.72476  0.10222  Biso   1.000  C 
  H25      1.0000 0.61469  0.77821  0.06887  Biso   1.000  H 
  C26      1.0000 0.62071  0.59971  0.15495  Biso   1.000  C 
  H26      1.0000 0.66062  0.54442  0.17118  Biso   1.000  H 
  C27      1.0000 0.53781  0.62958  0.17380  Biso   1.000  C 
  H27      1.0000 0.49086  0.60037  0.20866  Biso   1.000  H 
  C28      1.0000 0.80941  0.60028  0.24942  Biso   1.000  C 
  H28      1.0000 0.75198  0.63597  0.27140  Biso   1.000  H 
  C29      1.0000 0.79325  0.82460  0.20902  Biso   1.000  C 
  H29      1.0000 0.77137  0.77876  0.24881  Biso   1.000  H 
  C30      1.0000 0.83634  0.86951  0.10188  Biso   1.000  C 
  H30      1.0000 0.85020  0.87390  0.04259  Biso   1.000  H 
  C31      1.0000 0.35663  0.82638  0.00076  Biso   1.000  C 
  H31      1.0000 0.42224  0.83919  0.98613  Biso   1.000  H 
  C32      1.0000 0.37338  0.87709  0.28497  Biso   1.000  C 
  H32      1.0000 0.42653  0.91910  0.27696  Biso   1.000  H 
  C33      1.0000 0.45011  0.98580  0.10965  Biso   1.000  C 
  H33      1.0000 0.37636  0.99201  0.10583  Biso   1.000  H 
  C34      1.0000 0.57828  0.93914  0.13554  Biso   1.000  C 
  H34      1.0000 0.63390  0.89702  0.14608  Biso   1.000  H 
  C35      1.0000 0.95241  0.69404  0.03725  Biso   1.000  C 
  H35      1.0000 0.97313  0.72974  0.08640  Biso   1.000  H 
  C36      1.0000 0.25322  0.81631  0.07863  Biso   1.000  C 
  H36      1.0000 0.22517  0.80406  0.13291  Biso   1.000  H 
  N17      1.0000 0.66032  0.65834  0.10684  Biso   1.000  N 
  N18      1.0000 0.52559  0.70648  0.13975  Biso   1.000  N 
  N19      1.0000 0.86547  0.66826  0.01856  Biso   1.000  N 
  N20      1.0000 0.84676  0.60670  0.17945  Biso   1.000  N 
  N21      1.0000 0.79014  0.80346  0.13667  Biso   1.000  N 
  N22      1.0000 0.33900  0.80619  0.06981  Biso   1.000  N 
  N23      1.0000 0.36820  0.79747  0.24605  Biso   1.000  N 
  N24      1.0000 0.49016  0.91267  0.13490  Biso   1.000  N 
  Zn5      1.0000 0.78882  0.67798  0.10464  Biso   1.000  Zn
  Zn6      1.0000 0.42778  0.79369  0.14863  Biso   1.000  Zn
  C37      1.0000 0.82228  0.49820  0.50209  Biso   1.000  C 
  H37      1.0000 0.75271  0.48529  0.50583  Biso   1.000  H 
  C38      1.0000 0.96219  0.46380  0.48669  Biso   1.000  C 
  H38      1.0000 0.01436  0.41590  0.47391  Biso   1.000  H 
  C39      1.0000 0.95237  0.55161  0.50238  Biso   1.000  C 
  H39      1.0000 0.99784  0.60536  0.49394  Biso   1.000  H 
  C40      1.0000 0.65760  0.33951  0.52134  Biso   1.000  C 
  H40      1.0000 0.68177  0.37346  0.57085  Biso   1.000  H 
  C41      1.0000 0.94966  0.24441  0.67828  Biso   1.000  C 
  H41      1.0000 0.97253  0.26817  0.73114  Biso   1.000  H 
  C42      1.0000 0.90583  0.16755  0.58582  Biso   1.000  C 
  H42      1.0000 0.90167  0.11471  0.54500  Biso   1.000  H 
  C43      1.0000 0.08863  0.03949  0.55540  Biso   1.000  C 
  H43      1.0000 0.14682  0.07060  0.58255  Biso   1.000  H 
  C44      1.0000 0.93268  0.20845  0.96127  Biso   1.000  C 
  H44      1.0000 0.92458  0.24627  0.91100  Biso   1.000  H 
  C45      1.0000 0.14422  0.96302  0.75720  Biso   1.000  C 
  H45      1.0000 0.14831  0.91198  0.71523  Biso   1.000  H 
  C46      1.0000 0.10752  0.07707  0.81943  Biso   1.000  C 
  H46      1.0000 0.06735  0.13356  0.83377  Biso   1.000  H 
  C47      1.0000 0.90475  0.96695  0.82329  Biso   1.000  C 
  H47      1.0000 0.96621  0.95073  0.85023  Biso   1.000  H 
  C48      1.0000 0.99417  0.99034  0.48088  Biso   1.000  C 
  H48      1.0000 0.96490  0.97004  0.42942  Biso   1.000  H 
  N25      1.0000 0.87630  0.43106  0.48706  Biso   1.000  N 
  N26      1.0000 0.86355  0.57435  0.50987  Biso   1.000  N 
  N27      1.0000 0.89434  0.00661  0.75801  Biso   1.000  N 
  N28      1.0000 0.70959  0.29595  0.46742  Biso   1.000  N 
  N29      1.0000 0.93784  0.15920  0.65461  Biso   1.000  N 
  N30      1.0000 0.07612  0.03280  0.48085  Biso   1.000  N 
  N31      1.0000 0.01101  0.21397  0.99567  Biso   1.000  N 
  N32      1.0000 0.09823  0.03777  0.75285  Biso   1.000  N 
  Zn7      1.0000 0.84010  0.30660  0.47651  Biso   1.000  Zn
  Zn8      1.0000 0.99186  0.04655  0.69022  Biso   1.000  Zn
  C49      1.0000 0.67603  0.80485  0.54977  Biso   1.000  C 
  H49      1.0000 0.70101  0.86022  0.58064  Biso   1.000  H 
  C50      1.0000 0.66232  0.68565  0.48962  Biso   1.000  C 
  H50      1.0000 0.68105  0.62187  0.46955  Biso   1.000  H 
  C51      1.0000 0.58100  0.72661  0.49335  Biso   1.000  C 
  H51      1.0000 0.51717  0.70207  0.47605  Biso   1.000  H 
  C52      1.0000 0.16498  0.03288  0.86271  Biso   1.000  C 
  H52      1.0000 0.18351  0.05167  0.92100  Biso   1.000  H 
  C53      1.0000 0.87137  0.77872  0.69063  Biso   1.000  C 
  H53      1.0000 0.84149  0.83654  0.66676  Biso   1.000  H 
  C54      1.0000 0.92068  0.64722  0.67952  Biso   1.000  C 
  H54      1.0000 0.94418  0.58522  0.65487  Biso   1.000  H 
  C55      1.0000 0.47283  0.04060  0.43120  Biso   1.000  C 
  H55      1.0000 0.41050  0.05843  0.46167  Biso   1.000  H 
  C56      1.0000 0.47285  0.81056  0.82580  Biso   1.000  C 
  H56      1.0000 0.44654  0.74685  0.81689  Biso   1.000  H 
  C57      1.0000 0.65601  0.26417  0.41635  Biso   1.000  C 
  H57      1.0000 0.68444  0.23159  0.36874  Biso   1.000  H 
  C58      1.0000 0.57378  0.32217  0.49868  Biso   1.000  C 
  H58      1.0000 0.51506  0.34601  0.52165  Biso   1.000  H 
  C59      1.0000 0.93145  0.78408  0.40369  Biso   1.000  C 
  H59      1.0000 0.87161  0.80160  0.37654  Biso   1.000  H 
  C60      1.0000 0.56910  0.96248  0.37858  Biso   1.000  C 
  H60      1.0000 0.60702  0.90302  0.36543  Biso   1.000  H 
  N33      1.0000 0.72230  0.73729  0.52300  Biso   1.000  N 
  N34      1.0000 0.58979  0.79918  0.53279  Biso   1.000  N 
  N35      1.0000 0.93032  0.75995  0.47407  Biso   1.000  N 
  N36      1.0000 0.19079  0.96022  0.82214  Biso   1.000  N 
  N37      1.0000 0.88196  0.71343  0.63973  Biso   1.000  N 
  N38      1.0000 0.51337  0.96360  0.43719  Biso   1.000  N 
  N39      1.0000 0.41661  0.87920  0.84184  Biso   1.000  N 
  N40      1.0000 0.57093  0.27947  0.43420  Biso   1.000  N 
  Zn9      1.0000 0.84698  0.70751  0.54006  Biso   1.000  Zn
  Zn10     1.0000 0.51093  0.89569  0.53447  Biso   1.000  Zn
  C61      1.0000 0.75869  0.11935  0.23246  Biso   1.000  C 
  H61      1.0000 0.77285  0.06033  0.26719  Biso   1.000  H 
  C62      1.0000 0.73288  0.25346  0.20488  Biso   1.000  C 
  H62      1.0000 0.70042  0.31991  0.21046  Biso   1.000  H 
  C63      1.0000 0.79871  0.22013  0.15572  Biso   1.000  C 
  H63      1.0000 0.84244  0.25137  0.11405  Biso   1.000  H 
  C64      1.0000 0.58866  0.02492  0.11778  Biso   1.000  C 
  H64      1.0000 0.64725  0.06357  0.11276  Biso   1.000  H 
  C65      1.0000 0.48630  0.33896  0.17407  Biso   1.000  C 
  H65      1.0000 0.48761  0.39116  0.13399  Biso   1.000  H 
  C66      1.0000 0.49265  0.21010  0.21943  Biso   1.000  C 
  H66      1.0000 0.50593  0.13807  0.22316  Biso   1.000  H 
  C67      1.0000 0.07118  0.36268  0.13694  Biso   1.000  C 
  H67      1.0000 0.00358  0.34359  0.13103  Biso   1.000  H 
  C68      1.0000 0.90354  0.29860  0.34800  Biso   1.000  C 
  H68      1.0000 0.84003  0.30942  0.32395  Biso   1.000  H 
  C69      1.0000 0.92145  0.55889  0.18173  Biso   1.000  C 
  H69      1.0000 0.96246  0.54378  0.13421  Biso   1.000  H 
  C70      1.0000 0.86826  0.55457  0.29207  Biso   1.000  C 
  H70      1.0000 0.86624  0.53066  0.34693  Biso   1.000  H 
  C71      1.0000 0.59465  0.22127  0.86672  Biso   1.000  C 
  H71      1.0000 0.61969  0.24795  0.81783  Biso   1.000  H 
  C72      1.0000 0.20142  0.39291  0.10888  Biso   1.000  C 
  H72      1.0000 0.26618  0.38377  0.07974  Biso   1.000  H 
  N41      1.0000 0.70756  0.18666  0.25219  Biso   1.000  N 
  N42      1.0000 0.81852  0.13729  0.17545  Biso   1.000  N 
  N43      1.0000 0.60654  0.13157  0.88106  Biso   1.000  N 
  N44      1.0000 0.50890  0.05650  0.10229  Biso   1.000  N 
  N45      1.0000 0.48904  0.25397  0.15542  Biso   1.000  N 
  N46      1.0000 0.12568  0.35274  0.08196  Biso   1.000  N 
  N47      1.0000 0.97959  0.34492  0.33363  Biso   1.000  N 
  N48      1.0000 0.93857  0.52754  0.24913  Biso   1.000  N 
  Zn11     1.0000 0.48221  0.18108  0.07152  Biso   1.000  Zn
  Zn12     1.0000 0.03303  0.44511  0.27759  Biso   1.000  Zn
  C73      1.0000 0.28789  0.21594  0.03374  Biso   1.000  C 
  H73      1.0000 0.27631  0.22972  0.09108  Biso   1.000  H 
  C74      1.0000 0.28643  0.21532  0.91556  Biso   1.000  C 
  H74      1.0000 0.25620  0.21902  0.86165  Biso   1.000  H 
  C75      1.0000 0.37174  0.20968  0.93621  Biso   1.000  C 
  H75      1.0000 0.43036  0.20721  0.90101  Biso   1.000  H 
  C76      1.0000 0.10221  0.34828  0.82326  Biso   1.000  C 
  H76      1.0000 0.12224  0.28158  0.80553  Biso   1.000  H 
  C77      1.0000 0.87963  0.14853  0.99331  Biso   1.000  C 
  H77      1.0000 0.81558  0.12087  0.97908  Biso   1.000  H 
  C78      1.0000 0.00798  0.15530  0.05308  Biso   1.000  C 
  H78      1.0000 0.05648  0.14599  0.09603  Biso   1.000  H 
  C79      1.0000 0.59265  0.12009  0.95321  Biso   1.000  C 
  H79      1.0000 0.59513  0.05091  0.97186  Biso   1.000  H 
  C80      1.0000 0.91877  0.30134  0.62018  Biso   1.000  C 
  H80      1.0000 0.90960  0.37126  0.62228  Biso   1.000  H 
  C81      1.0000 0.54923  0.97993  0.67099  Biso   1.000  C 
  H81      1.0000 0.50155  0.93238  0.70046  Biso   1.000  H 
  C82      1.0000 0.64809  0.08760  0.65361  Biso   1.000  C 
  H82      1.0000 0.69534  0.13775  0.66589  Biso   1.000  H 
  C83      1.0000 0.19051  0.41715  0.18101  Biso   1.000  C 
  H83      1.0000 0.23739  0.45082  0.21138  Biso   1.000  H 
  C84      1.0000 0.58271  0.25833  0.93835  Biso   1.000  C 
  H84      1.0000 0.58600  0.32440  0.96050  Biso   1.000  H 
  N49      1.0000 0.23179  0.21687  0.97964  Biso   1.000  N 
  N50      1.0000 0.37433  0.21327  0.01206  Biso   1.000  N 
  N51      1.0000 0.10576  0.39860  0.19974  Biso   1.000  N 
  N52      1.0000 0.10904  0.36402  0.89622  Biso   1.000  N 
  N53      1.0000 0.92945  0.11254  0.04991  Biso   1.000  N 
  N54      1.0000 0.58055  0.19586  0.99235  Biso   1.000  N 
  N55      1.0000 0.89550  0.25213  0.56080  Biso   1.000  N 
  N56      1.0000 0.60358  0.04369  0.70529  Biso   1.000  N 
  Zn13     1.0000 0.12141  0.28546  0.98532  Biso   1.000  Zn
  Zn14     1.0000 0.63031  0.02908  0.81529  Biso   1.000  Zn
  C85      1.0000 0.35772  0.79966  0.49673  Biso   1.000  C 
  H85      1.0000 0.39407  0.77242  0.45069  Biso   1.000  H 
  C86      1.0000 0.24502  0.82769  0.56663  Biso   1.000  C 
  H86      1.0000 0.18059  0.81185  0.58959  Biso   1.000  H 
  C87      1.0000 0.31570  0.87042  0.59812  Biso   1.000  C 
  H87      1.0000 0.32593  0.91094  0.64694  Biso   1.000  H 
  C88      1.0000 0.19555  0.47971  0.37041  Biso   1.000  C 
  H88      1.0000 0.21778  0.41249  0.36487  Biso   1.000  H 
  C89      1.0000 0.31279  0.86897  0.34264  Biso   1.000  C 
  H89      1.0000 0.29413  0.91740  0.38485  Biso   1.000  H 
  C90      1.0000 0.30096  0.75059  0.27739  Biso   1.000  C 
  H90      1.0000 0.27381  0.68667  0.25871  Biso   1.000  H 
  C91      1.0000 0.01665  0.75870  0.49557  Biso   1.000  C 
  H91      1.0000 0.03915  0.73267  0.54813  Biso   1.000  H 
  C92      1.0000 0.83401  0.90767  0.21763  Biso   1.000  C 
  H92      1.0000 0.84834  0.94162  0.26632  Biso   1.000  H 
  C93      1.0000 0.01793  0.07924  0.26273  Biso   1.000  C 
  H93      1.0000 0.96763  0.12644  0.27960  Biso   1.000  H 
  C94      1.0000 0.10362  0.00936  0.18818  Biso   1.000  C 
  H94      1.0000 0.12354  0.97735  0.13790  Biso   1.000  H 
  C95      1.0000 0.56587  0.04021  0.34280  Biso   1.000  C 
  H95      1.0000 0.60641  0.05826  0.29769  Biso   1.000  H 
  C96      1.0000 0.01639  0.79457  0.37796  Biso   1.000  C 
  H96      1.0000 0.04084  0.82069  0.32804  Biso   1.000  H 
  N57      1.0000 0.27290  0.78440  0.50318  Biso   1.000  N 
  N58      1.0000 0.38814  0.84998  0.55263  Biso   1.000  N 
  N59      1.0000 0.49947  0.08758  0.37333  Biso   1.000  N 
  N60      1.0000 0.11520  0.51015  0.34386  Biso   1.000  N 
  N61      1.0000 0.26193  0.79342  0.33389  Biso   1.000  N 
  N62      1.0000 0.06797  0.77805  0.43724  Biso   1.000  N 
  N63      1.0000 0.85710  0.93271  0.14945  Biso   1.000  N 
  N64      1.0000 0.02478  0.05283  0.19370  Biso   1.000  N 
  Zn15     1.0000 0.19632  0.74702  0.41990  Biso   1.000  Zn
  Zn16     1.0000 0.90915  0.05004  0.13807  Biso   1.000  Zn
