data_image0
_cell_length_a       15.4231
_cell_length_b       15.4042
_cell_length_c       18.4379
_cell_angle_alpha    90
_cell_angle_beta     90
_cell_angle_gamma    90

_symmetry_space_group_name_H-M    "P 1"
_symmetry_int_tables_number       1

loop_
  _symmetry_equiv_pos_as_xyz
  'x, y, z'

loop_
  _atom_site_label
  _atom_site_occupancy
  _atom_site_fract_x
  _atom_site_fract_y
  _atom_site_fract_z
  _atom_site_thermal_displace_type
  _atom_site_B_iso_or_equiv
  _atom_site_type_symbol
  C1       1.0000 0.35911  0.63423  0.33450  Biso   1.000  C 
  H1       1.0000 0.36062  0.70836  0.32554  Biso   1.000  H 
  C2       1.0000 0.38901  0.50194  0.36408  Biso   1.000  C 
  H2       1.0000 0.42206  0.44408  0.39341  Biso   1.000  H 
  C3       1.0000 0.32733  0.50076  0.31042  Biso   1.000  C 
  H3       1.0000 0.29797  0.44343  0.28254  Biso   1.000  H 
  C4       1.0000 0.40822  0.01339  0.02581  Biso   1.000  C 
  H4       1.0000 0.47352  0.03041  0.04226  Biso   1.000  H 
  C5       1.0000 0.84259  0.16693  0.62145  Biso   1.000  C 
  H5       1.0000 0.81538  0.14542  0.57062  Biso   1.000  H 
  C6       1.0000 0.91940  0.14757  0.72196  Biso   1.000  C 
  H6       1.0000 0.95251  0.11222  0.76711  Biso   1.000  H 
  C7       1.0000 0.71592  0.08868  0.81980  Biso   1.000  C 
  H7       1.0000 0.65887  0.10013  0.78601  Biso   1.000  H 
  C8       1.0000 0.66369  0.26173  0.04737  Biso   1.000  C 
  H8       1.0000 0.73782  0.26202  0.04124  Biso   1.000  H 
  C9       1.0000 0.01551  0.64878  0.26266  Biso   1.000  C 
  H9       1.0000 0.98820  0.62810  0.21114  Biso   1.000  H 
  C10      1.0000 0.02546  0.68711  0.37869  Biso   1.000  C 
  H10      1.0000 0.99547  0.69788  0.43093  Biso   1.000  H 
  C11      1.0000 0.14209  0.26928  0.64741  Biso   1.000  C 
  H11      1.0000 0.09301  0.24080  0.61411  Biso   1.000  H 
  C12      1.0000 0.82484  0.01726  0.87141  Biso   1.000  C 
  H12      1.0000 0.87882  0.97203  0.87466  Biso   1.000  H 
  N1       1.0000 0.41245  0.59057  0.37898  Biso   1.000  N 
  N2       1.0000 0.30527  0.58549  0.29007  Biso   1.000  N 
  N3       1.0000 0.11779  0.30584  0.71462  Biso   1.000  N 
  N4       1.0000 0.38129  0.92570  0.03360  Biso   1.000  N 
  N5       1.0000 0.86318  0.10493  0.67741  Biso   1.000  N 
  N6       1.0000 0.77241  0.02166  0.81082  Biso   1.000  N 
  N7       1.0000 0.61316  0.19670  0.07946  Biso   1.000  N 
  N8       1.0000 0.96362  0.66319  0.32266  Biso   1.000  N 
  Zn1      1.0000 0.38013  0.36317  0.71746  Biso   1.000  Zn
  Zn2      1.0000 0.29670  0.12760  0.24632  Biso   1.000  Zn
  C13      1.0000 0.04374  0.86461  0.87306  Biso   1.000  C 
  H13      1.0000 0.03776  0.87813  0.81515  Biso   1.000  H 
  C14      1.0000 0.02625  0.79379  0.97406  Biso   1.000  C 
  H14      1.0000 0.98984  0.75313  0.00989  Biso   1.000  H 
  C15      1.0000 0.07159  0.87097  0.98870  Biso   1.000  C 
  H15      1.0000 0.10317  0.89381  0.03777  Biso   1.000  H 
  C16      1.0000 0.22094  0.67524  0.05413  Biso   1.000  C 
  H16      1.0000 0.16009  0.65101  0.03965  Biso   1.000  H 
  C17      1.0000 0.28822  0.99383  0.70003  Biso   1.000  C 
  H17      1.0000 0.30733  0.00671  0.64399  Biso   1.000  H 
  C18      1.0000 0.29444  0.93742  0.80701  Biso   1.000  C 
  H18      1.0000 0.30377  0.89503  0.85818  Biso   1.000  H 
  C19      1.0000 0.78251  0.73905  0.93849  Biso   1.000  C 
  H19      1.0000 0.81663  0.79369  0.96480  Biso   1.000  H 
  C20      1.0000 0.95119  0.77382  0.67985  Biso   1.000  C 
  H20      1.0000 0.00988  0.73897  0.65438  Biso   1.000  H 
  C21      1.0000 0.01082  0.53349  0.78469  Biso   1.000  C 
  H21      1.0000 0.97858  0.53793  0.72963  Biso   1.000  H 
  C22      1.0000 0.03253  0.55215  0.90049  Biso   1.000  C 
  H22      1.0000 0.03415  0.58049  0.95436  Biso   1.000  H 
  C23      1.0000 0.48458  0.72558  0.81580  Biso   1.000  C 
  H23      1.0000 0.50092  0.68106  0.77223  Biso   1.000  H 
  C24      1.0000 0.77488  0.62291  0.86947  Biso   1.000  C 
  H24      1.0000 0.79468  0.58147  0.82594  Biso   1.000  H 
  N9       1.0000 0.00240  0.79502  0.90199  Biso   1.000  N 
  N10      1.0000 0.07953  0.91457  0.92511  Biso   1.000  N 
  N11      1.0000 0.46613  0.81213  0.80718  Biso   1.000  N 
  N12      1.0000 0.24219  0.67900  0.12829  Biso   1.000  N 
  N13      1.0000 0.33384  0.93649  0.74181  Biso   1.000  N 
  N14      1.0000 0.82198  0.69837  0.88259  Biso   1.000  N 
  N15      1.0000 0.91197  0.75478  0.74591  Biso   1.000  N 
  N16      1.0000 0.00131  0.59163  0.83849  Biso   1.000  N 
  Zn3      1.0000 0.16899  0.00901  0.90371  Biso   1.000  Zn
  Zn4      1.0000 0.94603  0.70489  0.83921  Biso   1.000  Zn
  C25      1.0000 0.52766  0.55105  0.04845  Biso   1.000  C 
  H25      1.0000 0.54141  0.53307  0.99318  Biso   1.000  H 
  C26      1.0000 0.45567  0.54945  0.15149  Biso   1.000  C 
  H26      1.0000 0.41429  0.52055  0.19394  Biso   1.000  H 
  C27      1.0000 0.51909  0.61473  0.15525  Biso   1.000  C 
  H27      1.0000 0.53737  0.66216  0.19228  Biso   1.000  H 
  C28      1.0000 0.05626  0.15443  0.34210  Biso   1.000  C 
  H28      1.0000 0.98946  0.13858  0.35838  Biso   1.000  H 
  C29      1.0000 0.79476  0.79125  0.15163  Biso   1.000  C 
  H29      1.0000 0.79745  0.84757  0.11646  Biso   1.000  H 
  C30      1.0000 0.74213  0.66881  0.18633  Biso   1.000  C 
  H30      1.0000 0.70285  0.60919  0.19262  Biso   1.000  H 
  C31      1.0000 0.46364  0.85173  0.87065  Biso   1.000  C 
  H31      1.0000 0.45660  0.91946  0.88389  Biso   1.000  H 
  C32      1.0000 0.73399  0.72221  0.44274  Biso   1.000  C 
  H32      1.0000 0.78193  0.77974  0.44045  Biso   1.000  H 
  C33      1.0000 0.47374  0.10339  0.21887  Biso   1.000  C 
  H33      1.0000 0.44401  0.05053  0.18300  Biso   1.000  H 
  C34      1.0000 0.47949  0.19078  0.30977  Biso   1.000  C 
  H34      1.0000 0.46284  0.24412  0.35156  Biso   1.000  H 
  C35      1.0000 0.70434  0.62623  0.91591  Biso   1.000  C 
  H35      1.0000 0.65527  0.57815  0.93095  Biso   1.000  H 
  C36      1.0000 0.48480  0.71394  0.89092  Biso   1.000  C 
  H36      1.0000 0.48991  0.65394  0.92107  Biso   1.000  H 
  N17      1.0000 0.46362  0.50762  0.08461  Biso   1.000  N 
  N18      1.0000 0.56070  0.61508  0.08961  Biso   1.000  N 
  N19      1.0000 0.70784  0.69830  0.95908  Biso   1.000  N 
  N20      1.0000 0.06439  0.23239  0.30201  Biso   1.000  N 
  N21      1.0000 0.73204  0.73029  0.13178  Biso   1.000  N 
  N22      1.0000 0.47481  0.79099  0.92551  Biso   1.000  N 
  N23      1.0000 0.74194  0.64269  0.40429  Biso   1.000  N 
  N24      1.0000 0.42308  0.14409  0.26616  Biso   1.000  N 
  Zn5      1.0000 0.97237  0.29605  0.24668  Biso   1.000  Zn
  Zn6      1.0000 0.64410  0.69402  0.05801  Biso   1.000  Zn
  C37      1.0000 0.87802  0.44863  0.28346  Biso   1.000  C 
  H37      1.0000 0.90450  0.47534  0.23336  Biso   1.000  H 
  C38      1.0000 0.85286  0.36707  0.37577  Biso   1.000  C 
  H38      1.0000 0.85683  0.31204  0.41159  Biso   1.000  H 
  C39      1.0000 0.82224  0.44957  0.39077  Biso   1.000  C 
  H39      1.0000 0.79397  0.47152  0.44023  Biso   1.000  H 
  C40      1.0000 0.04669  0.41218  0.11363  Biso   1.000  C 
  H40      1.0000 0.01874  0.37777  0.06676  Biso   1.000  H 
  C41      1.0000 0.42838  0.18364  0.78222  Biso   1.000  C 
  H41      1.0000 0.36478  0.16733  0.76937  Biso   1.000  H 
  C42      1.0000 0.54152  0.27284  0.77828  Biso   1.000  C 
  H42      1.0000 0.58383  0.32561  0.75312  Biso   1.000  H 
  C43      1.0000 0.19342  0.34785  0.73725  Biso   1.000  C 
  H43      1.0000 0.19465  0.39379  0.78227  Biso   1.000  H 
  C44      1.0000 0.22995  0.22527  0.10359  Biso   1.000  C 
  H44      1.0000 0.17380  0.18364  0.09821  Biso   1.000  H 
  C45      1.0000 0.10020  0.17728  0.85227  Biso   1.000  C 
  H45      1.0000 0.13631  0.16630  0.80111  Biso   1.000  H 
  C46      1.0000 0.02013  0.23609  0.93439  Biso   1.000  C 
  H46      1.0000 0.96744  0.28249  0.95487  Biso   1.000  H 
  C47      1.0000 0.79869  0.08270  0.91857  Biso   1.000  C 
  H47      1.0000 0.84111  0.10557  0.96091  Biso   1.000  H 
  C48      1.0000 0.22653  0.29096  0.63175  Biso   1.000  C 
  H48      1.0000 0.27053  0.27248  0.59114  Biso   1.000  H 
  N25      1.0000 0.88984  0.36559  0.30899  Biso   1.000  N 
  N26      1.0000 0.83379  0.49695  0.32907  Biso   1.000  N 
  N27      1.0000 0.72455  0.12288  0.88816  Biso   1.000  N 
  N28      1.0000 0.02937  0.39370  0.18565  Biso   1.000  N 
  N29      1.0000 0.46248  0.25399  0.74823  Biso   1.000  N 
  N30      1.0000 0.25891  0.33707  0.69060  Biso   1.000  N 
  N31      1.0000 0.28732  0.22028  0.16123  Biso   1.000  N 
  N32      1.0000 0.05059  0.24544  0.86399  Biso   1.000  N 
  Zn7      1.0000 0.66617  0.22816  0.89430  Biso   1.000  Zn
  Zn8      1.0000 0.00829  0.32695  0.77363  Biso   1.000  Zn
  C49      1.0000 0.82382  0.29397  0.83076  Biso   1.000  C 
  H49      1.0000 0.83916  0.22738  0.80980  Biso   1.000  H 
  C50      1.0000 0.77926  0.39877  0.90168  Biso   1.000  C 
  H50      1.0000 0.73279  0.44042  0.93132  Biso   1.000  H 
  C51      1.0000 0.85664  0.42603  0.86999  Biso   1.000  C 
  H51      1.0000 0.89464  0.48370  0.87905  Biso   1.000  H 
  C52      1.0000 0.05665  0.16320  0.96524  Biso   1.000  C 
  H52      1.0000 0.04433  0.12543  0.01570  Biso   1.000  H 
  C53      1.0000 0.91074  0.84537  0.64981  Biso   1.000  C 
  H53      1.0000 0.92172  0.87888  0.59652  Biso   1.000  H 
  C54      1.0000 0.84684  0.81614  0.75173  Biso   1.000  C 
  H54      1.0000 0.81439  0.81746  0.80232  Biso   1.000  H 
  C55      1.0000 0.29942  0.92991  0.27563  Biso   1.000  C 
  H55      1.0000 0.35134  0.92736  0.31861  Biso   1.000  H 
  C56      1.0000 0.22156  0.03331  0.74332  Biso   1.000  C 
  H56      1.0000 0.17567  0.08572  0.73102  Biso   1.000  H 
  C57      1.0000 0.08698  0.44846  0.22096  Biso   1.000  C 
  H57      1.0000 0.08162  0.45416  0.27958  Biso   1.000  H 
  C58      1.0000 0.11395  0.47061  0.10734  Biso   1.000  C 
  H58      1.0000 0.14428  0.50194  0.05788  Biso   1.000  H 
  C59      1.0000 0.62031  0.05079  0.62393  Biso   1.000  C 
  H59      1.0000 0.64806  0.10071  0.59228  Biso   1.000  H 
  C60      1.0000 0.18517  0.88676  0.21239  Biso   1.000  C 
  H60      1.0000 0.14610  0.83050  0.18936  Biso   1.000  H 
  N33      1.0000 0.75563  0.31592  0.87460  Biso   1.000  N 
  N34      1.0000 0.88598  0.35567  0.82701  Biso   1.000  N 
  N35      1.0000 0.67158  0.99361  0.66253  Biso   1.000  N 
  N36      1.0000 0.10651  0.12227  0.90880  Biso   1.000  N 
  N37      1.0000 0.84277  0.87259  0.69497  Biso   1.000  N 
  N38      1.0000 0.24582  0.86033  0.26559  Biso   1.000  N 
  N39      1.0000 0.22911  0.99358  0.81056  Biso   1.000  N 
  N40      1.0000 0.13835  0.49842  0.17786  Biso   1.000  N 
  Zn9      1.0000 0.79120  0.00098  0.70485  Biso   1.000  Zn
  Zn10     1.0000 0.44203  0.81615  0.03020  Biso   1.000  Zn
  C61      1.0000 0.80526  0.19567  0.20194  Biso   1.000  C 
  H61      1.0000 0.76072  0.24666  0.22779  Biso   1.000  H 
  C62      1.0000 0.84733  0.07930  0.13920  Biso   1.000  C 
  H62      1.0000 0.84707  0.01888  0.11011  Biso   1.000  H 
  C63      1.0000 0.91666  0.13183  0.15812  Biso   1.000  C 
  H63      1.0000 0.98944  0.13216  0.14344  Biso   1.000  H 
  C64      1.0000 0.56209  0.17889  0.28426  Biso   1.000  C 
  H64      1.0000 0.62031  0.21607  0.30090  Biso   1.000  H 
  C65      1.0000 0.61041  0.33140  0.02523  Biso   1.000  C 
  H65      1.0000 0.62742  0.39631  0.00866  Biso   1.000  H 
  C66      1.0000 0.53437  0.23381  0.07985  Biso   1.000  C 
  H66      1.0000 0.47909  0.20146  0.10639  Biso   1.000  H 
  C67      1.0000 0.47049  0.74269  0.59737  Biso   1.000  C 
  H67      1.0000 0.53710  0.73492  0.61838  Biso   1.000  H 
  C68      1.0000 0.89021  0.24176  0.63687  Biso   1.000  C 
  H68      1.0000 0.90010  0.30757  0.60813  Biso   1.000  H 
  C69      1.0000 0.15223  0.24106  0.29589  Biso   1.000  C 
  H69      1.0000 0.17644  0.29474  0.26108  Biso   1.000  H 
  C70      1.0000 0.14018  0.12049  0.35347  Biso   1.000  C 
  H70      1.0000 0.15783  0.05608  0.37562  Biso   1.000  H 
  C71      1.0000 0.62472  0.88439  0.01370  Biso   1.000  C 
  H71      1.0000 0.62821  0.85171  0.96114  Biso   1.000  H 
  C72      1.0000 0.34008  0.79833  0.59679  Biso   1.000  C 
  H72      1.0000 0.28434  0.83505  0.62090  Biso   1.000  H 
  N41      1.0000 0.77480  0.12204  0.16908  Biso   1.000  N 
  N42      1.0000 0.89117  0.20941  0.19419  Biso   1.000  N 
  N43      1.0000 0.56963  0.85524  0.06969  Biso   1.000  N 
  N44      1.0000 0.55800  0.11829  0.22575  Biso   1.000  N 
  N45      1.0000 0.52725  0.31250  0.04705  Biso   1.000  N 
  N46      1.0000 0.41716  0.80105  0.63347  Biso   1.000  N 
  N47      1.0000 0.93554  0.22883  0.70002  Biso   1.000  N 
  N48      1.0000 0.20110  0.17264  0.31965  Biso   1.000  N 
  Zn11     1.0000 0.65060  0.09056  0.15386  Biso   1.000  Zn
  Zn12     1.0000 0.19758  0.60634  0.21642  Biso   1.000  Zn
  C73      1.0000 0.41504  0.38905  0.87202  Biso   1.000  C 
  H73      1.0000 0.45775  0.33160  0.87597  Biso   1.000  H 
  C74      1.0000 0.33329  0.49686  0.90564  Biso   1.000  C 
  H74      1.0000 0.29928  0.54517  0.93822  Biso   1.000  H 
  C75      1.0000 0.33339  0.49542  0.83012  Biso   1.000  C 
  H75      1.0000 0.30518  0.54193  0.79151  Biso   1.000  H 
  C76      1.0000 0.05572  0.46839  0.88211  Biso   1.000  C 
  H76      1.0000 0.08438  0.41202  0.90914  Biso   1.000  H 
  C77      1.0000 0.25754  0.29631  0.06040  Biso   1.000  C 
  H77      1.0000 0.23155  0.31930  0.01153  Biso   1.000  H 
  C78      1.0000 0.34602  0.28419  0.15332  Biso   1.000  C 
  H78      1.0000 0.39656  0.29904  0.19405  Biso   1.000  H 
  C79      1.0000 0.57726  0.91719  0.12220  Biso   1.000  C 
  H79      1.0000 0.53649  0.91887  0.17179  Biso   1.000  H 
  C80      1.0000 0.48383  0.15960  0.83938  Biso   1.000  C 
  H80      1.0000 0.46629  0.10553  0.87857  Biso   1.000  H 
  C81      1.0000 0.31828  0.72028  0.13445  Biso   1.000  C 
  H81      1.0000 0.35457  0.73159  0.18438  Biso   1.000  H 
  C82      1.0000 0.29091  0.71033  0.01979  Biso   1.000  C 
  H82      1.0000 0.30982  0.70623  0.96265  Biso   1.000  H 
  C83      1.0000 0.34610  0.74178  0.53868  Biso   1.000  C 
  H83      1.0000 0.29877  0.71412  0.50268  Biso   1.000  H 
  C84      1.0000 0.66927  0.95799  0.03871  Biso   1.000  C 
  H84      1.0000 0.72349  0.99083  0.00998  Biso   1.000  H 
  N49      1.0000 0.38940  0.43445  0.93043  Biso   1.000  N 
  N50      1.0000 0.38260  0.42543  0.80812  Biso   1.000  N 
  N51      1.0000 0.43177  0.70751  0.54100  Biso   1.000  N 
  N52      1.0000 0.04513  0.45762  0.80991  Biso   1.000  N 
  N53      1.0000 0.33229  0.32954  0.09035  Biso   1.000  N 
  N54      1.0000 0.63523  0.97627  0.10729  Biso   1.000  N 
  N55      1.0000 0.55848  0.21609  0.83751  Biso   1.000  N 
  N56      1.0000 0.35627  0.73498  0.06732  Biso   1.000  N 
  Zn13     1.0000 0.42468  0.39782  0.04121  Biso   1.000  Zn
  Zn14     1.0000 0.43897  0.87361  0.71857  Biso   1.000  Zn
  C85      1.0000 0.43241  0.49475  0.59081  Biso   1.000  C 
  H85      1.0000 0.37997  0.54175  0.60415  Biso   1.000  H 
  C86      1.0000 0.52751  0.42861  0.52242  Biso   1.000  C 
  H86      1.0000 0.57831  0.42442  0.48083  Biso   1.000  H 
  C87      1.0000 0.50883  0.37928  0.58516  Biso   1.000  C 
  H87      1.0000 0.53951  0.31943  0.60424  Biso   1.000  H 
  C88      1.0000 0.10756  0.68465  0.34863  Biso   1.000  C 
  H88      1.0000 0.17209  0.69549  0.37358  Biso   1.000  H 
  C89      1.0000 0.64963  0.72594  0.46868  Biso   1.000  C 
  H89      1.0000 0.61642  0.77618  0.50126  Biso   1.000  H 
  C90      1.0000 0.66305  0.60339  0.41036  Biso   1.000  C 
  H90      1.0000 0.64995  0.53635  0.39115  Biso   1.000  H 
  C91      1.0000 0.61739  0.94481  0.69934  Biso   1.000  C 
  H91      1.0000 0.63504  0.89222  0.73321  Biso   1.000  H 
  C92      1.0000 0.83561  0.76504  0.21320  Biso   1.000  C 
  H92      1.0000 0.88541  0.79148  0.25047  Biso   1.000  H 
  C93      1.0000 0.29872  0.92558  0.00983  Biso   1.000  C 
  H93      1.0000 0.25871  0.86304  0.00688  Biso   1.000  H 
  C94      1.0000 0.33988  0.05893  0.99424  Biso   1.000  C 
  H94      1.0000 0.33861  0.12658  0.98289  Biso   1.000  H 
  C95      1.0000 0.20314  0.97262  0.19657  Biso   1.000  C 
  H95      1.0000 0.17193  0.02002  0.15712  Biso   1.000  H 
  C96      1.0000 0.53590  0.02068  0.63115  Biso   1.000  C 
  H96      1.0000 0.47879  0.04864  0.60590  Biso   1.000  H 
  N57      1.0000 0.47961  0.50648  0.52988  Biso   1.000  N 
  N58      1.0000 0.44552  0.42001  0.62685  Biso   1.000  N 
  N59      1.0000 0.27286  0.00308  0.23506  Biso   1.000  N 
  N60      1.0000 0.09994  0.66256  0.27482  Biso   1.000  N 
  N61      1.0000 0.60171  0.65134  0.44664  Biso   1.000  N 
  N62      1.0000 0.53312  0.95750  0.68291  Biso   1.000  N 
  N63      1.0000 0.80597  0.68701  0.23508  Biso   1.000  N 
  N64      1.0000 0.26888  0.00537  0.98418  Biso   1.000  N 
  Zn15     1.0000 0.47737  0.62207  0.47438  Biso   1.000  Zn
  Zn16     1.0000 0.83381  0.62356  0.32847  Biso   1.000  Zn
