data_image0
_cell_length_a       15.4231
_cell_length_b       15.4042
_cell_length_c       18.4379
_cell_angle_alpha    90
_cell_angle_beta     90
_cell_angle_gamma    90

_symmetry_space_group_name_H-M    "P 1"
_symmetry_int_tables_number       1

loop_
  _symmetry_equiv_pos_as_xyz
  'x, y, z'

loop_
  _atom_site_label
  _atom_site_occupancy
  _atom_site_fract_x
  _atom_site_fract_y
  _atom_site_fract_z
  _atom_site_thermal_displace_type
  _atom_site_B_iso_or_equiv
  _atom_site_type_symbol
  C1       1.0000 0.38087  0.19729  0.36994  Biso   1.000  C 
  H1       1.0000 0.37780  0.15367  0.32423  Biso   1.000  H 
  C2       1.0000 0.34992  0.27318  0.46520  Biso   1.000  C 
  H2       1.0000 0.31613  0.28034  0.51849  Biso   1.000  H 
  C3       1.0000 0.40020  0.32440  0.41907  Biso   1.000  C 
  H3       1.0000 0.42482  0.39150  0.42783  Biso   1.000  H 
  C4       1.0000 0.17255  0.07356  0.33173  Biso   1.000  C 
  H4       1.0000 0.23190  0.08822  0.30357  Biso   1.000  H 
  C5       1.0000 0.10411  0.33772  0.43094  Biso   1.000  C 
  H5       1.0000 0.11010  0.33373  0.48893  Biso   1.000  H 
  C6       1.0000 0.10653  0.37716  0.31765  Biso   1.000  C 
  H6       1.0000 0.11800  0.40855  0.26618  Biso   1.000  H 
  C7       1.0000 0.82427  0.13167  0.42491  Biso   1.000  C 
  H7       1.0000 0.88149  0.16102  0.44887  Biso   1.000  H 
  C8       1.0000 0.54274  0.26463  0.05884  Biso   1.000  C 
  H8       1.0000 0.53409  0.25973  0.99963  Biso   1.000  H 
  C9       1.0000 0.32871  0.41170  0.27343  Biso   1.000  C 
  H9       1.0000 0.29500  0.34937  0.27529  Biso   1.000  H 
  C10      1.0000 0.41846  0.51921  0.24334  Biso   1.000  C 
  H10      1.0000 0.47812  0.55290  0.22334  Biso   1.000  H 
  C11      1.0000 0.17860  0.09471  0.69516  Biso   1.000  C 
  H11      1.0000 0.18329  0.08556  0.75220  Biso   1.000  H 
  C12      1.0000 0.74024  0.04341  0.37129  Biso   1.000  C 
  H12      1.0000 0.70930  0.99368  0.33681  Biso   1.000  H 
  N1       1.0000 0.33828  0.19056  0.43246  Biso   1.000  N 
  N2       1.0000 0.41866  0.27757  0.35947  Biso   1.000  N 
  N3       1.0000 0.10035  0.10241  0.66120  Biso   1.000  N 
  N4       1.0000 0.16658  0.05817  0.40777  Biso   1.000  N 
  N5       1.0000 0.14033  0.39760  0.38565  Biso   1.000  N 
  N6       1.0000 0.82566  0.06662  0.37498  Biso   1.000  N 
  N7       1.0000 0.60804  0.21403  0.09150  Biso   1.000  N 
  N8       1.0000 0.40888  0.43120  0.24736  Biso   1.000  N 
  Zn1      1.0000 0.26080  0.08214  0.47724  Biso   1.000  Zn
  Zn2      1.0000 0.49171  0.32646  0.27629  Biso   1.000  Zn
  C13      1.0000 0.13269  0.82262  0.93892  Biso   1.000  C 
  H13      1.0000 0.16940  0.76792  0.95657  Biso   1.000  H 
  C14      1.0000 0.10018  0.94311  0.88188  Biso   1.000  C 
  H14      1.0000 0.10360  0.01038  0.86116  Biso   1.000  H 
  C15      1.0000 0.03212  0.88999  0.87989  Biso   1.000  C 
  H15      1.0000 0.96320  0.90722  0.86338  Biso   1.000  H 
  C16      1.0000 0.46591  0.95510  0.82973  Biso   1.000  C 
  H16      1.0000 0.48822  0.88753  0.83827  Biso   1.000  H 
  C17      1.0000 0.22970  0.78485  0.67712  Biso   1.000  C 
  H17      1.0000 0.18834  0.76403  0.63296  Biso   1.000  H 
  C18      1.0000 0.34797  0.80503  0.74392  Biso   1.000  C 
  H18      1.0000 0.41188  0.81798  0.76723  Biso   1.000  H 
  C19      1.0000 0.89230  0.68532  0.03047  Biso   1.000  C 
  H19      1.0000 0.92247  0.74437  0.05122  Biso   1.000  H 
  C20      1.0000 0.90317  0.62325  0.76041  Biso   1.000  C 
  H20      1.0000 0.91246  0.55412  0.78000  Biso   1.000  H 
  C21      1.0000 0.07460  0.52227  0.90679  Biso   1.000  C 
  H21      1.0000 0.02000  0.49634  0.93512  Biso   1.000  H 
  C22      1.0000 0.16653  0.61250  0.85732  Biso   1.000  C 
  H22      1.0000 0.18698  0.67943  0.83884  Biso   1.000  H 
  C23      1.0000 0.36430  0.73620  0.96593  Biso   1.000  C 
  H23      1.0000 0.32880  0.69549  0.92950  Biso   1.000  H 
  C24      1.0000 0.86490  0.56742  0.96814  Biso   1.000  C 
  H24      1.0000 0.87280  0.52082  0.92574  Biso   1.000  H 
  N9       1.0000 0.16724  0.90073  0.91875  Biso   1.000  N 
  N10      1.0000 0.05061  0.81275  0.91666  Biso   1.000  N 
  N11      1.0000 0.35896  0.82866  0.95644  Biso   1.000  N 
  N12      1.0000 0.38120  0.98156  0.84548  Biso   1.000  N 
  N13      1.0000 0.31896  0.78042  0.67695  Biso   1.000  N 
  N14      1.0000 0.91297  0.64733  0.96628  Biso   1.000  N 
  N15      1.0000 0.93674  0.69913  0.79442  Biso   1.000  N 
  N16      1.0000 0.08654  0.60522  0.89142  Biso   1.000  N 
  Zn3      1.0000 0.29120  0.89566  0.87785  Biso   1.000  Zn
  Zn4      1.0000 0.99754  0.69575  0.89182  Biso   1.000  Zn
  C25      1.0000 0.64053  0.69599  0.16644  Biso   1.000  C 
  H25      1.0000 0.65163  0.68994  0.10626  Biso   1.000  H 
  C26      1.0000 0.67137  0.70047  0.28278  Biso   1.000  C 
  H26      1.0000 0.70802  0.69018  0.33029  Biso   1.000  H 
  C27      1.0000 0.58723  0.73943  0.27074  Biso   1.000  C 
  H27      1.0000 0.53917  0.77101  0.30623  Biso   1.000  H 
  C28      1.0000 0.84341  0.51973  0.28896  Biso   1.000  C 
  H28      1.0000 0.79360  0.55281  0.32169  Biso   1.000  H 
  C29      1.0000 0.82907  0.85328  0.16324  Biso   1.000  C 
  H29      1.0000 0.80205  0.85819  0.10720  Biso   1.000  H 
  C30      1.0000 0.88994  0.80650  0.26291  Biso   1.000  C 
  H30      1.0000 0.91542  0.76679  0.30605  Biso   1.000  H 
  C31      1.0000 0.39807  0.86546  0.01465  Biso   1.000  C 
  H31      1.0000 0.40406  0.93777  0.01837  Biso   1.000  H 
  C32      1.0000 0.51476  0.94905  0.27500  Biso   1.000  C 
  H32      1.0000 0.56750  0.91173  0.29653  Biso   1.000  H 
  C33      1.0000 0.61592  0.98710  0.10496  Biso   1.000  C 
  H33      1.0000 0.59016  0.02070  0.15355  Biso   1.000  H 
  C34      1.0000 0.64685  0.87596  0.03313  Biso   1.000  C 
  H34      1.0000 0.64996  0.80857  0.01516  Biso   1.000  H 
  C35      1.0000 0.82604  0.55849  0.03390  Biso   1.000  C 
  H35      1.0000 0.78855  0.50268  0.05719  Biso   1.000  H 
  C36      1.0000 0.41697  0.72346  0.02530  Biso   1.000  C 
  H36      1.0000 0.43584  0.66463  0.05324  Biso   1.000  H 
  N17      1.0000 0.70276  0.67859  0.21470  Biso   1.000  N 
  N18      1.0000 0.56834  0.73413  0.19671  Biso   1.000  N 
  N19      1.0000 0.83683  0.63732  0.07250  Biso   1.000  N 
  N20      1.0000 0.88200  0.55869  0.22928  Biso   1.000  N 
  N21      1.0000 0.85771  0.77947  0.20066  Biso   1.000  N 
  N22      1.0000 0.43303  0.80400  0.05881  Biso   1.000  N 
  N23      1.0000 0.46059  0.91267  0.22272  Biso   1.000  N 
  N24      1.0000 0.60170  0.90115  0.09594  Biso   1.000  N 
  Zn5      1.0000 0.82353  0.65733  0.18057  Biso   1.000  Zn
  Zn6      1.0000 0.49755  0.83084  0.14816  Biso   1.000  Zn
  C37      1.0000 0.86132  0.20596  0.60084  Biso   1.000  C 
  H37      1.0000 0.81787  0.15142  0.60735  Biso   1.000  H 
  C38      1.0000 0.90067  0.33329  0.56415  Biso   1.000  C 
  H38      1.0000 0.89246  0.39505  0.53336  Biso   1.000  H 
  C39      1.0000 0.96381  0.30286  0.61148  Biso   1.000  C 
  H39      1.0000 0.02895  0.32848  0.62075  Biso   1.000  H 
  C40      1.0000 0.68137  0.43701  0.41939  Biso   1.000  C 
  H40      1.0000 0.71574  0.48612  0.45647  Biso   1.000  H 
  C41      1.0000 0.53612  0.26068  0.55875  Biso   1.000  C 
  H41      1.0000 0.51903  0.25948  0.50203  Biso   1.000  H 
  C42      1.0000 0.61614  0.24028  0.65298  Biso   1.000  C 
  H42      1.0000 0.67693  0.24441  0.68586  Biso   1.000  H 
  C43      1.0000 0.11934  0.10684  0.58903  Biso   1.000  C 
  H43      1.0000 0.07052  0.11211  0.54602  Biso   1.000  H 
  C44      1.0000 0.98705  0.16271  0.88085  Biso   1.000  C 
  H44      1.0000 0.93653  0.11268  0.89373  Biso   1.000  H 
  C45      1.0000 0.88669  0.97319  0.66618  Biso   1.000  C 
  H45      1.0000 0.92609  0.96708  0.61728  Biso   1.000  H 
  C46      1.0000 0.82985  0.02428  0.76411  Biso   1.000  C 
  H46      1.0000 0.82986  0.05617  0.81860  Biso   1.000  H 
  C47      1.0000 0.69277  0.09479  0.41859  Biso   1.000  C 
  H47      1.0000 0.62737  0.09784  0.43653  Biso   1.000  H 
  C48      1.0000 0.24213  0.09049  0.64381  Biso   1.000  C 
  H48      1.0000 0.31082  0.08392  0.65057  Biso   1.000  H 
  N25      1.0000 0.83690  0.27152  0.55747  Biso   1.000  N 
  N26      1.0000 0.94178  0.21681  0.63495  Biso   1.000  N 
  N27      1.0000 0.74494  0.15321  0.45410  Biso   1.000  N 
  N28      1.0000 0.69620  0.34799  0.42308  Biso   1.000  N 
  N29      1.0000 0.62055  0.25524  0.58090  Biso   1.000  N 
  N30      1.0000 0.20675  0.10200  0.57632  Biso   1.000  N 
  N31      1.0000 0.01189  0.17474  0.81071  Biso   1.000  N 
  N32      1.0000 0.89670  0.03446  0.71409  Biso   1.000  N 
  Zn7      1.0000 0.72768  0.27283  0.50736  Biso   1.000  Zn
  Zn8      1.0000 0.98695  0.13220  0.71602  Biso   1.000  Zn
  C49      1.0000 0.58704  0.78911  0.59641  Biso   1.000  C 
  H49      1.0000 0.58718  0.83437  0.55137  Biso   1.000  H 
  C50      1.0000 0.63064  0.71769  0.69168  Biso   1.000  C 
  H50      1.0000 0.67779  0.69213  0.72637  Biso   1.000  H 
  C51      1.0000 0.54247  0.70079  0.67853  Biso   1.000  C 
  H51      1.0000 0.49192  0.66339  0.71324  Biso   1.000  H 
  C52      1.0000 0.77799  0.95624  0.74146  Biso   1.000  C 
  H52      1.0000 0.71551  0.93184  0.75919  Biso   1.000  H 
  C53      1.0000 0.85011  0.64492  0.70156  Biso   1.000  C 
  H53      1.0000 0.81052  0.60096  0.66621  Biso   1.000  H 
  C54      1.0000 0.90471  0.76157  0.74928  Biso   1.000  C 
  H54      1.0000 0.91736  0.83064  0.76441  Biso   1.000  H 
  C55      1.0000 0.32595  0.91247  0.53363  Biso   1.000  C 
  H55      1.0000 0.27696  0.91542  0.57789  Biso   1.000  H 
  C56      1.0000 0.20405  0.81105  0.74765  Biso   1.000  C 
  H56      1.0000 0.13892  0.81844  0.77511  Biso   1.000  H 
  C57      1.0000 0.63510  0.31085  0.37552  Biso   1.000  C 
  H57      1.0000 0.63829  0.24216  0.36638  Biso   1.000  H 
  C58      1.0000 0.61249  0.44964  0.37062  Biso   1.000  C 
  H58      1.0000 0.58809  0.50884  0.34557  Biso   1.000  H 
  C59      1.0000 0.93692  0.79181  0.52957  Biso   1.000  C 
  H59      1.0000 0.96468  0.75068  0.56994  Biso   1.000  H 
  C60      1.0000 0.43265  0.86917  0.46431  Biso   1.000  C 
  H60      1.0000 0.48809  0.82908  0.44930  Biso   1.000  H 
  N33      1.0000 0.65735  0.77530  0.63868  Biso   1.000  N 
  N34      1.0000 0.51586  0.74858  0.62066  Biso   1.000  N 
  N35      1.0000 0.84776  0.81400  0.53473  Biso   1.000  N 
  N36      1.0000 0.81080  0.92793  0.67557  Biso   1.000  N 
  N37      1.0000 0.85223  0.73444  0.69460  Biso   1.000  N 
  N38      1.0000 0.38438  0.84598  0.52527  Biso   1.000  N 
  N39      1.0000 0.28006  0.82252  0.78987  Biso   1.000  N 
  N40      1.0000 0.58694  0.37135  0.34229  Biso   1.000  N 
  Zn9      1.0000 0.77891  0.81545  0.62935  Biso   1.000  Zn
  Zn10     1.0000 0.39481  0.74791  0.59364  Biso   1.000  Zn
  C61      1.0000 0.84708  0.23129  0.12950  Biso   1.000  C 
  H61      1.0000 0.80176  0.28670  0.14066  Biso   1.000  H 
  C62      1.0000 0.89490  0.11305  0.08021  Biso   1.000  C 
  H62      1.0000 0.90319  0.05350  0.04831  Biso   1.000  H 
  C63      1.0000 0.95772  0.14129  0.12964  Biso   1.000  C 
  H63      1.0000 0.02095  0.11608  0.14678  Biso   1.000  H 
  C64      1.0000 0.69493  0.94764  0.00773  Biso   1.000  C 
  H64      1.0000 0.73853  0.95572  0.96153  Biso   1.000  H 
  C65      1.0000 0.49509  0.30156  0.11569  Biso   1.000  C 
  H65      1.0000 0.43633  0.33695  0.11221  Biso   1.000  H 
  C66      1.0000 0.59491  0.21618  0.16273  Biso   1.000  C 
  H66      1.0000 0.62688  0.17867  0.20567  Biso   1.000  H 
  C67      1.0000 0.07946  0.35260  0.08684  Biso   1.000  C 
  H67      1.0000 0.02498  0.39726  0.07804  Biso   1.000  H 
  C68      1.0000 0.05365  0.27947  0.39359  Biso   1.000  C 
  H68      1.0000 0.02503  0.21771  0.40871  Biso   1.000  H 
  C69      1.0000 0.93745  0.49347  0.20468  Biso   1.000  C 
  H69      1.0000 0.98095  0.49840  0.15781  Biso   1.000  H 
  C70      1.0000 0.87291  0.43365  0.29586  Biso   1.000  C 
  H70      1.0000 0.84681  0.37815  0.32851  Biso   1.000  H 
  C71      1.0000 0.68953  0.25624  0.83373  Biso   1.000  C 
  H71      1.0000 0.70277  0.30018  0.78795  Biso   1.000  H 
  C72      1.0000 0.20572  0.28117  0.07992  Biso   1.000  C 
  H72      1.0000 0.26557  0.25439  0.05610  Biso   1.000  H 
  N41      1.0000 0.82468  0.16652  0.07980  Biso   1.000  N 
  N42      1.0000 0.92410  0.21648  0.16464  Biso   1.000  N 
  N43      1.0000 0.60599  0.21786  0.84282  Biso   1.000  N 
  N44      1.0000 0.67413  0.01748  0.05540  Biso   1.000  N 
  N45      1.0000 0.53169  0.27494  0.18175  Biso   1.000  N 
  N46      1.0000 0.14662  0.33561  0.04295  Biso   1.000  N 
  N47      1.0000 0.05733  0.30518  0.31949  Biso   1.000  N 
  N48      1.0000 0.93183  0.41966  0.24204  Biso   1.000  N 
  Zn11     1.0000 0.70426  0.14143  0.03719  Biso   1.000  Zn
  Zn12     1.0000 0.99199  0.30444  0.22064  Biso   1.000  Zn
  C73      1.0000 0.31614  0.28614  0.84824  Biso   1.000  C 
  H73      1.0000 0.27226  0.23686  0.82242  Biso   1.000  H 
  C74      1.0000 0.36697  0.35894  0.93892  Biso   1.000  C 
  H74      1.0000 0.37225  0.39368  0.98921  Biso   1.000  H 
  C75      1.0000 0.43614  0.33610  0.89677  Biso   1.000  C 
  H75      1.0000 0.50830  0.34613  0.90642  Biso   1.000  H 
  C76      1.0000 0.20309  0.52952  0.85364  Biso   1.000  C 
  H76      1.0000 0.26512  0.50566  0.83286  Biso   1.000  H 
  C77      1.0000 0.03167  0.21767  0.92454  Biso   1.000  C 
  H77      1.0000 0.02152  0.22635  0.98238  Biso   1.000  H 
  C78      1.0000 0.07444  0.23913  0.81429  Biso   1.000  C 
  H78      1.0000 0.11267  0.27520  0.77343  Biso   1.000  H 
  C79      1.0000 0.61236  0.17262  0.90569  Biso   1.000  C 
  H79      1.0000 0.56213  0.13557  0.93011  Biso   1.000  H 
  C80      1.0000 0.48309  0.25604  0.61979  Biso   1.000  C 
  H80      1.0000 0.41120  0.26341  0.62067  Biso   1.000  H 
  C81      1.0000 0.37937  0.06637  0.82740  Biso   1.000  C 
  H81      1.0000 0.32424  0.10678  0.83706  Biso   1.000  H 
  C82      1.0000 0.51328  0.02666  0.80307  Biso   1.000  C 
  H82      1.0000 0.58369  0.03511  0.79123  Biso   1.000  H 
  C83      1.0000 0.16884  0.26579  0.14772  Biso   1.000  C 
  H83      1.0000 0.18512  0.23208  0.19770  Biso   1.000  H 
  C84      1.0000 0.73777  0.23540  0.89272  Biso   1.000  C 
  H84      1.0000 0.80638  0.24097  0.90245  Biso   1.000  H 
  N49      1.0000 0.28945  0.33033  0.90582  Biso   1.000  N 
  N50      1.0000 0.40505  0.28515  0.83921  Biso   1.000  N 
  N51      1.0000 0.08861  0.31544  0.15342  Biso   1.000  N 
  N52      1.0000 0.14583  0.47351  0.89040  Biso   1.000  N 
  N53      1.0000 0.08761  0.26928  0.88449  Biso   1.000  N 
  N54      1.0000 0.69050  0.18188  0.93626  Biso   1.000  N 
  N55      1.0000 0.53410  0.24235  0.67876  Biso   1.000  N 
  N56      1.0000 0.45752  0.09620  0.80286  Biso   1.000  N 
  Zn13     1.0000 0.16483  0.35315  0.93599  Biso   1.000  Zn
  Zn14     1.0000 0.49487  0.22220  0.78130  Biso   1.000  Zn
  C85      1.0000 0.33871  0.59863  0.48337  Biso   1.000  C 
  H85      1.0000 0.38257  0.62872  0.44122  Biso   1.000  H 
  C86      1.0000 0.27757  0.58265  0.58910  Biso   1.000  C 
  H86      1.0000 0.27217  0.58979  0.64880  Biso   1.000  H 
  C87      1.0000 0.23916  0.52363  0.54067  Biso   1.000  C 
  H87      1.0000 0.19545  0.46744  0.54885  Biso   1.000  H 
  C88      1.0000 0.34059  0.55495  0.27294  Biso   1.000  C 
  H88      1.0000 0.32482  0.62589  0.27971  Biso   1.000  H 
  C89      1.0000 0.48750  0.03502  0.28728  Biso   1.000  C 
  H89      1.0000 0.52024  0.08736  0.31972  Biso   1.000  H 
  C90      1.0000 0.40749  0.98131  0.20210  Biso   1.000  C 
  H90      1.0000 0.35959  0.97016  0.15894  Biso   1.000  H 
  C91      1.0000 0.83599  0.87017  0.47820  Biso   1.000  C 
  H91      1.0000 0.77416  0.90007  0.46453  Biso   1.000  H 
  C92      1.0000 0.84324  0.92486  0.20852  Biso   1.000  C 
  H92      1.0000 0.82117  0.99378  0.19870  Biso   1.000  H 
  C93      1.0000 0.09224  0.01597  0.41485  Biso   1.000  C 
  H93      1.0000 0.06499  0.99645  0.46692  Biso   1.000  H 
  C94      1.0000 0.09733  0.04847  0.29887  Biso   1.000  C 
  H94      1.0000 0.07843  0.05325  0.23731  Biso   1.000  H 
  C95      1.0000 0.40544  0.95102  0.44280  Biso   1.000  C 
  H95      1.0000 0.42911  0.99206  0.39860  Biso   1.000  H 
  C96      1.0000 0.97278  0.82550  0.46770  Biso   1.000  C 
  H96      1.0000 0.03775  0.81735  0.43883  Biso   1.000  H 
  N57      1.0000 0.34225  0.62791  0.55200  Biso   1.000  N 
  N58      1.0000 0.28236  0.53685  0.47374  Biso   1.000  N 
  N59      1.0000 0.33411  0.97549  0.48444  Biso   1.000  N 
  N60      1.0000 0.28619  0.48742  0.28980  Biso   1.000  N 
  N61      1.0000 0.42324  0.05632  0.23697  Biso   1.000  N 
  N62      1.0000 0.90737  0.87631  0.43693  Biso   1.000  N 
  N63      1.0000 0.88668  0.89694  0.26948  Biso   1.000  N 
  N64      1.0000 0.04419  0.01249  0.35142  Biso   1.000  N 
  Zn15     1.0000 0.23887  0.47539  0.38708  Biso   1.000  Zn
  Zn16     1.0000 0.91779  0.96740  0.35855  Biso   1.000  Zn
