data_image0
_cell_length_a       15.4231
_cell_length_b       15.4042
_cell_length_c       18.4379
_cell_angle_alpha    90
_cell_angle_beta     90
_cell_angle_gamma    90

_symmetry_space_group_name_H-M    "P 1"
_symmetry_int_tables_number       1

loop_
  _symmetry_equiv_pos_as_xyz
  'x, y, z'

loop_
  _atom_site_label
  _atom_site_occupancy
  _atom_site_fract_x
  _atom_site_fract_y
  _atom_site_fract_z
  _atom_site_thermal_displace_type
  _atom_site_B_iso_or_equiv
  _atom_site_type_symbol
  C1       1.0000 0.36695  0.21998  0.35129  Biso   1.000  C 
  H1       1.0000 0.32765  0.27398  0.32615  Biso   1.000  H 
  C2       1.0000 0.39250  0.10162  0.40819  Biso   1.000  C 
  H2       1.0000 0.37896  0.03983  0.44004  Biso   1.000  H 
  C3       1.0000 0.47437  0.13425  0.38537  Biso   1.000  C 
  H3       1.0000 0.54092  0.10804  0.38161  Biso   1.000  H 
  C4       1.0000 0.20102  0.02325  0.28912  Biso   1.000  C 
  H4       1.0000 0.26246  0.05323  0.26502  Biso   1.000  H 
  C5       1.0000 0.14860  0.33856  0.39012  Biso   1.000  C 
  H5       1.0000 0.18205  0.35882  0.43952  Biso   1.000  H 
  C6       1.0000 0.09216  0.24584  0.31883  Biso   1.000  C 
  H6       1.0000 0.07078  0.18393  0.28926  Biso   1.000  H 
  C7       1.0000 0.60159  0.32377  0.46079  Biso   1.000  C 
  H7       1.0000 0.54991  0.28467  0.48381  Biso   1.000  H 
  C8       1.0000 0.59511  0.36648  0.16169  Biso   1.000  C 
  H8       1.0000 0.56468  0.43022  0.16238  Biso   1.000  H 
  C9       1.0000 0.42607  0.48076  0.35911  Biso   1.000  C 
  H9       1.0000 0.45824  0.48569  0.40845  Biso   1.000  H 
  C10      1.0000 0.39243  0.44866  0.24469  Biso   1.000  C 
  H10      1.0000 0.39379  0.40532  0.19975  Biso   1.000  H 
  C11      1.0000 0.22248  0.05769  0.56144  Biso   1.000  C 
  H11      1.0000 0.28273  0.02492  0.54590  Biso   1.000  H 
  C12      1.0000 0.68020  0.39280  0.38042  Biso   1.000  C 
  H12      1.0000 0.70655  0.40470  0.32671  Biso   1.000  H 
  N1       1.0000 0.32946  0.16157  0.39217  Biso   1.000  N 
  N2       1.0000 0.45368  0.21566  0.34558  Biso   1.000  N 
  N3       1.0000 0.18278  0.12161  0.51873  Biso   1.000  N 
  N4       1.0000 0.16555  0.05268  0.35375  Biso   1.000  N 
  N5       1.0000 0.13720  0.24997  0.38079  Biso   1.000  N 
  N6       1.0000 0.61021  0.33698  0.38550  Biso   1.000  N 
  N7       1.0000 0.57955  0.30368  0.21451  Biso   1.000  N 
  N8       1.0000 0.44537  0.42379  0.30321  Biso   1.000  N 
  Zn1      1.0000 0.20734  0.15568  0.42077  Biso   1.000  Zn
  Zn2      1.0000 0.52188  0.31866  0.30765  Biso   1.000  Zn
  C13      1.0000 0.13091  0.76025  0.85371  Biso   1.000  C 
  H13      1.0000 0.17779  0.70746  0.83364  Biso   1.000  H 
  C14      1.0000 0.10152  0.89742  0.88074  Biso   1.000  C 
  H14      1.0000 0.12364  0.95863  0.90837  Biso   1.000  H 
  C15      1.0000 0.02896  0.86221  0.84450  Biso   1.000  C 
  H15      1.0000 0.95749  0.87949  0.83574  Biso   1.000  H 
  C16      1.0000 0.27959  0.98603  0.80450  Biso   1.000  C 
  H16      1.0000 0.21445  0.96026  0.79577  Biso   1.000  H 
  C17      1.0000 0.32521  0.63532  0.86937  Biso   1.000  C 
  H17      1.0000 0.27314  0.61213  0.90384  Biso   1.000  H 
  C18      1.0000 0.41130  0.73723  0.81989  Biso   1.000  C 
  H18      1.0000 0.44008  0.79975  0.80900  Biso   1.000  H 
  C19      1.0000 0.89919  0.66450  0.94540  Biso   1.000  C 
  H19      1.0000 0.95455  0.69098  0.97332  Biso   1.000  H 
  C20      1.0000 0.87591  0.61894  0.66595  Biso   1.000  C 
  H20      1.0000 0.86427  0.54776  0.67864  Biso   1.000  H 
  C21      1.0000 0.08366  0.51333  0.86276  Biso   1.000  C 
  H21      1.0000 0.04547  0.52152  0.91246  Biso   1.000  H 
  C22      1.0000 0.13206  0.54054  0.75223  Biso   1.000  C 
  H22      1.0000 0.11823  0.56163  0.69638  Biso   1.000  H 
  C23      1.0000 0.27019  0.92254  0.05616  Biso   1.000  C 
  H23      1.0000 0.20643  0.95527  0.04286  Biso   1.000  H 
  C24      1.0000 0.81585  0.60755  0.86308  Biso   1.000  C 
  H24      1.0000 0.79977  0.59020  0.80721  Biso   1.000  H 
  N9       1.0000 0.16279  0.83139  0.88954  Biso   1.000  N 
  N10      1.0000 0.04648  0.77524  0.83058  Biso   1.000  N 
  N11      1.0000 0.31574  0.86641  0.01426  Biso   1.000  N 
  N12      1.0000 0.32471  0.95043  0.86292  Biso   1.000  N 
  N13      1.0000 0.34750  0.72839  0.87256  Biso   1.000  N 
  N14      1.0000 0.89133  0.65155  0.87471  Biso   1.000  N 
  N15      1.0000 0.92897  0.67669  0.70365  Biso   1.000  N 
  N16      1.0000 0.06662  0.56207  0.80427  Biso   1.000  N 
  Zn3      1.0000 0.28975  0.83270  0.91569  Biso   1.000  Zn
  Zn4      1.0000 0.98454  0.66722  0.79836  Biso   1.000  Zn
  C25      1.0000 0.63885  0.73388  0.15827  Biso   1.000  C 
  H25      1.0000 0.67726  0.78691  0.17718  Biso   1.000  H 
  C26      1.0000 0.59632  0.64237  0.07632  Biso   1.000  C 
  H26      1.0000 0.60153  0.59335  0.03396  Biso   1.000  H 
  C27      1.0000 0.52199  0.67773  0.10811  Biso   1.000  C 
  H27      1.0000 0.45110  0.66946  0.09610  Biso   1.000  H 
  C28      1.0000 0.82782  0.53395  0.21700  Biso   1.000  C 
  H28      1.0000 0.78313  0.57228  0.24967  Biso   1.000  H 
  C29      1.0000 0.88647  0.83299  0.11001  Biso   1.000  C 
  H29      1.0000 0.84509  0.86414  0.06791  Biso   1.000  H 
  C30      1.0000 0.91327  0.73882  0.19617  Biso   1.000  C 
  H30      1.0000 0.92961  0.67674  0.22375  Biso   1.000  H 
  C31      1.0000 0.38949  0.84523  0.05304  Biso   1.000  C 
  H31      1.0000 0.43305  0.79698  0.02889  Biso   1.000  H 
  C32      1.0000 0.39429  0.88640  0.32489  Biso   1.000  C 
  H32      1.0000 0.39973  0.95262  0.32981  Biso   1.000  H 
  C33      1.0000 0.59178  0.00991  0.14135  Biso   1.000  C 
  H33      1.0000 0.54896  0.02472  0.09782  Biso   1.000  H 
  C34      1.0000 0.64974  0.95220  0.23751  Biso   1.000  C 
  H34      1.0000 0.64965  0.90571  0.27831  Biso   1.000  H 
  C35      1.0000 0.77077  0.60380  0.93085  Biso   1.000  C 
  H35      1.0000 0.70985  0.57770  0.94508  Biso   1.000  H 
  C36      1.0000 0.31624  0.93332  0.12015  Biso   1.000  C 
  H36      1.0000 0.29591  0.95602  0.17329  Biso   1.000  H 
  N17      1.0000 0.66839  0.67678  0.10825  Biso   1.000  N 
  N18      1.0000 0.55104  0.74603  0.15548  Biso   1.000  N 
  N19      1.0000 0.83135  0.63145  0.98494  Biso   1.000  N 
  N20      1.0000 0.83924  0.54628  0.14532  Biso   1.000  N 
  N21      1.0000 0.87294  0.74702  0.12937  Biso   1.000  N 
  N22      1.0000 0.39111  0.88263  0.11704  Biso   1.000  N 
  N23      1.0000 0.42878  0.82854  0.27548  Biso   1.000  N 
  N24      1.0000 0.57612  0.95042  0.19205  Biso   1.000  N 
  Zn5      1.0000 0.80565  0.64948  0.08977  Biso   1.000  Zn
  Zn6      1.0000 0.48586  0.85968  0.18357  Biso   1.000  Zn
  C37      1.0000 0.84756  0.25231  0.64593  Biso   1.000  C 
  H37      1.0000 0.80846  0.19428  0.65887  Biso   1.000  H 
  C38      1.0000 0.89356  0.37672  0.59707  Biso   1.000  C 
  H38      1.0000 0.89480  0.43621  0.56720  Biso   1.000  H 
  C39      1.0000 0.96708  0.32684  0.61147  Biso   1.000  C 
  H39      1.0000 0.03913  0.34407  0.60831  Biso   1.000  H 
  C40      1.0000 0.66764  0.47547  0.73612  Biso   1.000  C 
  H40      1.0000 0.71418  0.43902  0.76745  Biso   1.000  H 
  C41      1.0000 0.62298  0.16350  0.61579  Biso   1.000  C 
  H41      1.0000 0.64416  0.13963  0.56303  Biso   1.000  H 
  C42      1.0000 0.57852  0.25583  0.69697  Biso   1.000  C 
  H42      1.0000 0.56752  0.31534  0.72635  Biso   1.000  H 
  C43      1.0000 0.11771  0.15552  0.55518  Biso   1.000  C 
  H43      1.0000 0.07449  0.20246  0.53097  Biso   1.000  H 
  C44      1.0000 0.07859  0.13643  0.84475  Biso   1.000  C 
  H44      1.0000 0.06899  0.06406  0.84228  Biso   1.000  H 
  C45      1.0000 0.91182  0.00345  0.64934  Biso   1.000  C 
  H45      1.0000 0.96221  0.00045  0.60731  Biso   1.000  H 
  C46      1.0000 0.84985  0.05482  0.74862  Biso   1.000  C 
  H46      1.0000 0.83973  0.10079  0.79616  Biso   1.000  H 
  C47      1.0000 0.70700  0.41939  0.44693  Biso   1.000  C 
  H47      1.0000 0.76093  0.46292  0.46375  Biso   1.000  H 
  C48      1.0000 0.17319  0.05981  0.62629  Biso   1.000  C 
  H48      1.0000 0.17665  0.00880  0.66849  Biso   1.000  H 
  N25      1.0000 0.81805  0.32836  0.61897  Biso   1.000  N 
  N26      1.0000 0.93820  0.25051  0.64485  Biso   1.000  N 
  N27      1.0000 0.65841  0.37433  0.49921  Biso   1.000  N 
  N28      1.0000 0.64497  0.44540  0.66640  Biso   1.000  N 
  N29      1.0000 0.62983  0.24668  0.63566  Biso   1.000  N 
  N30      1.0000 0.10845  0.11648  0.62135  Biso   1.000  N 
  N31      1.0000 0.06770  0.19668  0.78740  Biso   1.000  N 
  N32      1.0000 0.92405  0.05980  0.70487  Biso   1.000  N 
  Zn7      1.0000 0.69519  0.35402  0.60195  Biso   1.000  Zn
  Zn8      1.0000 0.00901  0.15429  0.69153  Biso   1.000  Zn
  C49      1.0000 0.63922  0.76921  0.65106  Biso   1.000  C 
  H49      1.0000 0.68871  0.72030  0.66842  Biso   1.000  H 
  C50      1.0000 0.59637  0.88097  0.58730  Biso   1.000  C 
  H50      1.0000 0.60208  0.94191  0.55766  Biso   1.000  H 
  C51      1.0000 0.52497  0.84076  0.62169  Biso   1.000  C 
  H51      1.0000 0.45838  0.86159  0.62383  Biso   1.000  H 
  C52      1.0000 0.79797  0.98634  0.71957  Biso   1.000  C 
  H52      1.0000 0.73053  0.96775  0.73409  Biso   1.000  H 
  C53      1.0000 0.83133  0.67056  0.61477  Biso   1.000  C 
  H53      1.0000 0.78020  0.64629  0.57856  Biso   1.000  H 
  C54      1.0000 0.91858  0.75595  0.67284  Biso   1.000  C 
  H54      1.0000 0.95039  0.81480  0.69503  Biso   1.000  H 
  C55      1.0000 0.39810  0.65509  0.54248  Biso   1.000  C 
  H55      1.0000 0.44506  0.69309  0.51488  Biso   1.000  H 
  C56      1.0000 0.37690  0.59815  0.81517  Biso   1.000  C 
  H56      1.0000 0.38474  0.52991  0.79533  Biso   1.000  H 
  C57      1.0000 0.58266  0.49823  0.64274  Biso   1.000  C 
  H57      1.0000 0.55079  0.49190  0.59038  Biso   1.000  H 
  C58      1.0000 0.61351  0.54243  0.75197  Biso   1.000  C 
  H58      1.0000 0.60656  0.58193  0.80357  Biso   1.000  H 
  C59      1.0000 0.77945  0.92326  0.43352  Biso   1.000  C 
  H59      1.0000 0.71800  0.95710  0.44267  Biso   1.000  H 
  C60      1.0000 0.31150  0.60125  0.62211  Biso   1.000  C 
  H60      1.0000 0.29829  0.58603  0.67893  Biso   1.000  H 
  N33      1.0000 0.66869  0.83605  0.60943  Biso   1.000  N 
  N34      1.0000 0.55512  0.76548  0.65785  Biso   1.000  N 
  N35      1.0000 0.81549  0.86732  0.48289  Biso   1.000  N 
  N36      1.0000 0.83820  0.95493  0.65821  Biso   1.000  N 
  N37      1.0000 0.85447  0.75753  0.62093  Biso   1.000  N 
  N38      1.0000 0.38876  0.64787  0.61225  Biso   1.000  N 
  N39      1.0000 0.43104  0.66099  0.78464  Biso   1.000  N 
  N40      1.0000 0.55997  0.56131  0.69190  Biso   1.000  N 
  Zn9      1.0000 0.79490  0.86110  0.58684  Biso   1.000  Zn
  Zn10     1.0000 0.48596  0.66719  0.68707  Biso   1.000  Zn
  C61      1.0000 0.87262  0.24015  0.13167  Biso   1.000  C 
  H61      1.0000 0.82616  0.28798  0.14805  Biso   1.000  H 
  C62      1.0000 0.92752  0.12112  0.08921  Biso   1.000  C 
  H62      1.0000 0.92997  0.06185  0.05673  Biso   1.000  H 
  C63      1.0000 0.99560  0.17099  0.11535  Biso   1.000  C 
  H63      1.0000 0.06777  0.15586  0.12285  Biso   1.000  H 
  C64      1.0000 0.70670  0.01250  0.21054  Biso   1.000  C 
  H64      1.0000 0.77457  0.02089  0.22685  Biso   1.000  H 
  C65      1.0000 0.64442  0.32780  0.10645  Biso   1.000  C 
  H65      1.0000 0.67248  0.35617  0.05832  Biso   1.000  H 
  C66      1.0000 0.62411  0.23435  0.19384  Biso   1.000  C 
  H66      1.0000 0.63430  0.17584  0.22623  Biso   1.000  H 
  C67      1.0000 0.11292  0.34773  0.05864  Biso   1.000  C 
  H67      1.0000 0.04862  0.33110  0.03714  Biso   1.000  H 
  C68      1.0000 0.09857  0.38563  0.34162  Biso   1.000  C 
  H68      1.0000 0.08964  0.45303  0.33957  Biso   1.000  H 
  C69      1.0000 0.89578  0.48300  0.12462  Biso   1.000  C 
  H69      1.0000 0.91938  0.46807  0.07006  Biso   1.000  H 
  C70      1.0000 0.88048  0.46655  0.24342  Biso   1.000  C 
  H70      1.0000 0.89615  0.44955  0.30159  Biso   1.000  H 
  C71      1.0000 0.72027  0.08428  0.92488  Biso   1.000  C 
  H71      1.0000 0.78185  0.05530  0.93297  Biso   1.000  H 
  C72      1.0000 0.21322  0.36985  0.14033  Biso   1.000  C 
  H72      1.0000 0.24526  0.37989  0.19310  Biso   1.000  H 
  N41      1.0000 0.84985  0.16507  0.09681  Biso   1.000  N 
  N42      1.0000 0.95699  0.24573  0.14191  Biso   1.000  N 
  N43      1.0000 0.68364  0.13208  0.97907  Biso   1.000  N 
  N44      1.0000 0.66875  0.05014  0.14962  Biso   1.000  N 
  N45      1.0000 0.66268  0.24395  0.12552  Biso   1.000  N 
  N46      1.0000 0.12838  0.34916  0.13110  Biso   1.000  N 
  N47      1.0000 0.06020  0.32210  0.29557  Biso   1.000  N 
  N48      1.0000 0.92045  0.43108  0.18374  Biso   1.000  N 
  Zn11     1.0000 0.72499  0.14135  0.07959  Biso   1.000  Zn
  Zn12     1.0000 0.01872  0.34912  0.19266  Biso   1.000  Zn
  C73      1.0000 0.35118  0.27583  0.85287  Biso   1.000  C 
  H73      1.0000 0.31135  0.21280  0.83974  Biso   1.000  H 
  C74      1.0000 0.39975  0.39440  0.90470  Biso   1.000  C 
  H74      1.0000 0.38907  0.45951  0.93024  Biso   1.000  H 
  C75      1.0000 0.46970  0.34484  0.88191  Biso   1.000  C 
  H75      1.0000 0.54482  0.35822  0.88376  Biso   1.000  H 
  C76      1.0000 0.18473  0.47787  0.78412  Biso   1.000  C 
  H76      1.0000 0.24114  0.44794  0.75615  Biso   1.000  H 
  C77      1.0000 0.11803  0.18252  0.90069  Biso   1.000  C 
  H77      1.0000 0.14957  0.16884  0.95249  Biso   1.000  H 
  C78      1.0000 0.09439  0.27189  0.81283  Biso   1.000  C 
  H78      1.0000 0.09035  0.34064  0.78701  Biso   1.000  H 
  C79      1.0000 0.60633  0.16033  0.95104  Biso   1.000  C 
  H79      1.0000 0.55774  0.19812  0.98178  Biso   1.000  H 
  C80      1.0000 0.56866  0.12101  0.66555  Biso   1.000  C 
  H80      1.0000 0.55187  0.05295  0.67141  Biso   1.000  H 
  C81      1.0000 0.40038  0.99346  0.86769  Biso   1.000  C 
  H81      1.0000 0.45177  0.97862  0.90613  Biso   1.000  H 
  C82      1.0000 0.32825  0.05600  0.78204  Biso   1.000  C 
  H82      1.0000 0.32105  0.10296  0.74174  Biso   1.000  H 
  C83      1.0000 0.25146  0.37972  0.07204  Biso   1.000  C 
  H83      1.0000 0.31784  0.39687  0.05307  Biso   1.000  H 
  C84      1.0000 0.66680  0.08641  0.86625  Biso   1.000  C 
  H84      1.0000 0.68235  0.06702  0.80939  Biso   1.000  H 
  N49      1.0000 0.32419  0.34810  0.88651  Biso   1.000  N 
  N50      1.0000 0.43838  0.26919  0.84899  Biso   1.000  N 
  N51      1.0000 0.18442  0.37090  0.02142  Biso   1.000  N 
  N52      1.0000 0.15458  0.46392  0.85545  Biso   1.000  N 
  N53      1.0000 0.12939  0.26921  0.88187  Biso   1.000  N 
  N54      1.0000 0.59425  0.13592  0.88353  Biso   1.000  N 
  N55      1.0000 0.54173  0.18123  0.71593  Biso   1.000  N 
  N56      1.0000 0.40687  0.05535  0.81944  Biso   1.000  N 
  Zn13     1.0000 0.19441  0.37072  0.91740  Biso   1.000  Zn
  Zn14     1.0000 0.49093  0.15980  0.81430  Biso   1.000  Zn
  C85      1.0000 0.14762  0.73123  0.34629  Biso   1.000  C 
  H85      1.0000 0.19200  0.77587  0.31627  Biso   1.000  H 
  C86      1.0000 0.11249  0.62302  0.41990  Biso   1.000  C 
  H86      1.0000 0.12465  0.55998  0.44538  Biso   1.000  H 
  C87      1.0000 0.03581  0.66597  0.39908  Biso   1.000  C 
  H87      1.0000 0.96970  0.64638  0.41310  Biso   1.000  H 
  C88      1.0000 0.34417  0.51827  0.26792  Biso   1.000  C 
  H88      1.0000 0.29548  0.55329  0.23813  Biso   1.000  H 
  C89      1.0000 0.35586  0.83436  0.37773  Biso   1.000  C 
  H89      1.0000 0.32229  0.84964  0.42814  Biso   1.000  H 
  C90      1.0000 0.40520  0.74677  0.29641  Biso   1.000  C 
  H90      1.0000 0.40801  0.69477  0.25595  Biso   1.000  H 
  C91      1.0000 0.89032  0.84197  0.45506  Biso   1.000  C 
  H91      1.0000 0.93867  0.80151  0.48401  Biso   1.000  H 
  C92      1.0000 0.93665  0.87284  0.16328  Biso   1.000  C 
  H92      1.0000 0.96692  0.93663  0.16818  Biso   1.000  H 
  C93      1.0000 0.09587  0.99961  0.36761  Biso   1.000  C 
  H93      1.0000 0.05503  0.00603  0.41337  Biso   1.000  H 
  C94      1.0000 0.15082  0.95417  0.26664  Biso   1.000  C 
  H94      1.0000 0.15164  0.92073  0.21266  Biso   1.000  H 
  C95      1.0000 0.27455  0.58523  0.55190  Biso   1.000  C 
  H95      1.0000 0.21793  0.54464  0.54457  Biso   1.000  H 
  C96      1.0000 0.82927  0.92533  0.37227  Biso   1.000  C 
  H96      1.0000 0.82065  0.96271  0.32148  Biso   1.000  H 
  N57      1.0000 0.18281  0.66331  0.38353  Biso   1.000  N 
  N58      1.0000 0.06145  0.74088  0.36070  Biso   1.000  N 
  N59      1.0000 0.32966  0.61359  0.50269  Biso   1.000  N 
  N60      1.0000 0.36690  0.54210  0.33892  Biso   1.000  N 
  N61      1.0000 0.35790  0.74719  0.35845  Biso   1.000  N 
  N62      1.0000 0.90368  0.87650  0.38691  Biso   1.000  N 
  N63      1.0000 0.94882  0.81253  0.21927  Biso   1.000  N 
  N64      1.0000 0.08228  0.94050  0.31537  Biso   1.000  N 
  Zn15     1.0000 0.30574  0.63999  0.40026  Biso   1.000  Zn
  Zn16     1.0000 0.00055  0.83733  0.31536  Biso   1.000  Zn
