data_image0
_cell_length_a       15.4231
_cell_length_b       15.4042
_cell_length_c       18.4379
_cell_angle_alpha    90
_cell_angle_beta     90
_cell_angle_gamma    90

_symmetry_space_group_name_H-M    "P 1"
_symmetry_int_tables_number       1

loop_
  _symmetry_equiv_pos_as_xyz
  'x, y, z'

loop_
  _atom_site_label
  _atom_site_occupancy
  _atom_site_fract_x
  _atom_site_fract_y
  _atom_site_fract_z
  _atom_site_thermal_displace_type
  _atom_site_B_iso_or_equiv
  _atom_site_type_symbol
  C1       1.0000 0.25912  0.24320  0.40476  Biso   1.000  C 
  H1       1.0000 0.28870  0.18683  0.42777  Biso   1.000  H 
  C2       1.0000 0.17815  0.35337  0.37178  Biso   1.000  C 
  H2       1.0000 0.11617  0.39120  0.36765  Biso   1.000  H 
  C3       1.0000 0.25082  0.35481  0.32636  Biso   1.000  C 
  H3       1.0000 0.26919  0.40832  0.28970  Biso   1.000  H 
  C4       1.0000 0.96311  0.10956  0.36720  Biso   1.000  C 
  H4       1.0000 0.90241  0.12775  0.39173  Biso   1.000  H 
  C5       1.0000 0.90984  0.32505  0.52280  Biso   1.000  C 
  H5       1.0000 0.87143  0.26274  0.53023  Biso   1.000  H 
  C6       1.0000 0.01269  0.41629  0.48960  Biso   1.000  C 
  H6       1.0000 0.07564  0.43737  0.46958  Biso   1.000  H 
  C7       1.0000 0.58316  0.87588  0.94322  Biso   1.000  C 
  H7       1.0000 0.59370  0.93759  0.97166  Biso   1.000  H 
  C8       1.0000 0.40170  0.31422  0.15345  Biso   1.000  C 
  H8       1.0000 0.36767  0.37491  0.16578  Biso   1.000  H 
  C9       1.0000 0.20483  0.62069  0.32243  Biso   1.000  C 
  H9       1.0000 0.14773  0.65862  0.33649  Biso   1.000  H 
  C10      1.0000 0.34915  0.58772  0.32365  Biso   1.000  C 
  H10      1.0000 0.41706  0.58807  0.33870  Biso   1.000  H 
  C11      1.0000 0.17037  0.08497  0.64701  Biso   1.000  C 
  H11      1.0000 0.20940  0.04541  0.68242  Biso   1.000  H 
  C12      1.0000 0.58260  0.78258  0.85200  Biso   1.000  C 
  H12      1.0000 0.58461  0.75588  0.79649  Biso   1.000  H 
  N1       1.0000 0.18334  0.28462  0.41880  Biso   1.000  N 
  N2       1.0000 0.30137  0.28511  0.34465  Biso   1.000  N 
  N3       1.0000 0.13661  0.15824  0.67617  Biso   1.000  N 
  N4       1.0000 0.04175  0.14344  0.38764  Biso   1.000  N 
  N5       1.0000 0.99600  0.33127  0.49485  Biso   1.000  N 
  N6       1.0000 0.59173  0.87033  0.86770  Biso   1.000  N 
  N7       1.0000 0.43040  0.25613  0.20580  Biso   1.000  N 
  N8       1.0000 0.27940  0.62725  0.36272  Biso   1.000  N 
  Zn1      1.0000 0.07817  0.22653  0.46556  Biso   1.000  Zn
  Zn2      1.0000 0.41984  0.26811  0.31733  Biso   1.000  Zn
  C13      1.0000 0.08845  0.67463  0.85279  Biso   1.000  C 
  H13      1.0000 0.03770  0.70604  0.81826  Biso   1.000  H 
  C14      1.0000 0.20966  0.64380  0.90654  Biso   1.000  C 
  H14      1.0000 0.27665  0.65914  0.92872  Biso   1.000  H 
  C15      1.0000 0.16030  0.56498  0.90204  Biso   1.000  C 
  H15      1.0000 0.17563  0.49774  0.91766  Biso   1.000  H 
  C16      1.0000 0.63185  0.85764  0.58723  Biso   1.000  C 
  H16      1.0000 0.65255  0.81040  0.54616  Biso   1.000  H 
  C17      1.0000 0.41964  0.86525  0.72657  Biso   1.000  C 
  H17      1.0000 0.46110  0.84449  0.67938  Biso   1.000  H 
  C18      1.0000 0.38706  0.91564  0.83956  Biso   1.000  C 
  H18      1.0000 0.38625  0.94359  0.89485  Biso   1.000  H 
  C19      1.0000 0.83718  0.50521  0.98220  Biso   1.000  C 
  H19      1.0000 0.82737  0.43453  0.97422  Biso   1.000  H 
  C20      1.0000 0.85896  0.63873  0.74996  Biso   1.000  C 
  H20      1.0000 0.82328  0.67132  0.79295  Biso   1.000  H 
  C21      1.0000 0.04114  0.34853  0.83238  Biso   1.000  C 
  H21      1.0000 0.10473  0.37705  0.84219  Biso   1.000  H 
  C22      1.0000 0.90016  0.34349  0.82954  Biso   1.000  C 
  H22      1.0000 0.83134  0.35778  0.83532  Biso   1.000  H 
  C23      1.0000 0.31362  0.76956  0.09064  Biso   1.000  C 
  H23      1.0000 0.30662  0.74400  0.14568  Biso   1.000  H 
  C24      1.0000 0.89412  0.63307  0.98560  Biso   1.000  C 
  H24      1.0000 0.94795  0.68037  0.97389  Biso   1.000  H 
  N9       1.0000 0.16710  0.70913  0.86727  Biso   1.000  N 
  N10      1.0000 0.07940  0.59072  0.87119  Biso   1.000  N 
  N11      1.0000 0.38771  0.78193  0.05296  Biso   1.000  N 
  N12      1.0000 0.58596  0.93404  0.56919  Biso   1.000  N 
  N13      1.0000 0.44666  0.91829  0.78379  Biso   1.000  N 
  N14      1.0000 0.89017  0.55834  0.94398  Biso   1.000  N 
  N15      1.0000 0.92043  0.56875  0.76318  Biso   1.000  N 
  N16      1.0000 0.96766  0.39370  0.85383  Biso   1.000  N 
  Zn3      1.0000 0.21444  0.82903  0.88113  Biso   1.000  Zn
  Zn4      1.0000 0.96455  0.52930  0.86013  Biso   1.000  Zn
  C25      1.0000 0.63241  0.62990  0.10607  Biso   1.000  C 
  H25      1.0000 0.67972  0.64276  0.06327  Biso   1.000  H 
  C26      1.0000 0.55699  0.55610  0.18420  Biso   1.000  C 
  H26      1.0000 0.53927  0.50645  0.22746  Biso   1.000  H 
  C27      1.0000 0.50628  0.62461  0.15857  Biso   1.000  C 
  H27      1.0000 0.44202  0.64293  0.17688  Biso   1.000  H 
  C28      1.0000 0.87140  0.51285  0.26145  Biso   1.000  C 
  H28      1.0000 0.81793  0.50670  0.29884  Biso   1.000  H 
  C29      1.0000 0.01914  0.84243  0.15565  Biso   1.000  C 
  H29      1.0000 0.97722  0.89577  0.13961  Biso   1.000  H 
  C30      1.0000 0.13906  0.77772  0.19838  Biso   1.000  C 
  H30      1.0000 0.20268  0.77471  0.22608  Biso   1.000  H 
  C31      1.0000 0.36048  0.80492  0.98544  Biso   1.000  C 
  H31      1.0000 0.40256  0.82217  0.93787  Biso   1.000  H 
  C32      1.0000 0.31830  0.90093  0.27111  Biso   1.000  C 
  H32      1.0000 0.34247  0.91490  0.21566  Biso   1.000  H 
  C33      1.0000 0.53608  0.98056  0.08665  Biso   1.000  C 
  H33      1.0000 0.46751  0.98937  0.06948  Biso   1.000  H 
  C34      1.0000 0.65164  0.91171  0.12660  Biso   1.000  C 
  H34      1.0000 0.69740  0.86026  0.14015  Biso   1.000  H 
  C35      1.0000 0.83566  0.62811  0.04179  Biso   1.000  C 
  H35      1.0000 0.82374  0.67091  0.08708  Biso   1.000  H 
  C36      1.0000 0.24132  0.78157  0.04682  Biso   1.000  C 
  H36      1.0000 0.17353  0.77142  0.05959  Biso   1.000  H 
  N17      1.0000 0.63646  0.56088  0.14855  Biso   1.000  N 
  N18      1.0000 0.55152  0.66985  0.10807  Biso   1.000  N 
  N19      1.0000 0.79728  0.54243  0.04079  Biso   1.000  N 
  N20      1.0000 0.86426  0.49710  0.18831  Biso   1.000  N 
  N21      1.0000 0.09568  0.85585  0.19732  Biso   1.000  N 
  N22      1.0000 0.27386  0.81476  0.98200  Biso   1.000  N 
  N23      1.0000 0.23928  0.92797  0.30017  Biso   1.000  N 
  N24      1.0000 0.56297  0.89895  0.10804  Biso   1.000  N 
  Zn5      1.0000 0.74684  0.49493  0.13831  Biso   1.000  Zn
  Zn6      1.0000 0.51884  0.78082  0.06693  Biso   1.000  Zn
  C37      1.0000 0.74504  0.58749  0.53794  Biso   1.000  C 
  H37      1.0000 0.75495  0.56624  0.59504  Biso   1.000  H 
  C38      1.0000 0.68539  0.63349  0.43759  Biso   1.000  C 
  H38      1.0000 0.63131  0.64618  0.40251  Biso   1.000  H 
  C39      1.0000 0.76980  0.65849  0.44041  Biso   1.000  C 
  H39      1.0000 0.82029  0.67300  0.40010  Biso   1.000  H 
  C40      1.0000 0.60721  0.44010  0.37815  Biso   1.000  C 
  H40      1.0000 0.67048  0.46976  0.38515  Biso   1.000  H 
  C41      1.0000 0.67407  0.34955  0.68661  Biso   1.000  C 
  H41      1.0000 0.69979  0.33312  0.74036  Biso   1.000  H 
  C42      1.0000 0.64983  0.34068  0.57372  Biso   1.000  C 
  H42      1.0000 0.65503  0.31641  0.51630  Biso   1.000  H 
  C43      1.0000 0.09909  0.20723  0.62276  Biso   1.000  C 
  H43      1.0000 0.07034  0.27112  0.62983  Biso   1.000  H 
  C44      1.0000 0.20384  0.07463  0.03695  Biso   1.000  C 
  H44      1.0000 0.20916  0.07889  0.97570  Biso   1.000  H 
  C45      1.0000 0.15948  0.00689  0.83907  Biso   1.000  C 
  H45      1.0000 0.22477  0.01373  0.82505  Biso   1.000  H 
  C46      1.0000 0.01973  0.02480  0.86344  Biso   1.000  C 
  H46      1.0000 0.95893  0.06201  0.87265  Biso   1.000  H 
  C47      1.0000 0.57249  0.73703  0.91811  Biso   1.000  C 
  H47      1.0000 0.56853  0.66759  0.93045  Biso   1.000  H 
  C48      1.0000 0.15673  0.09091  0.57138  Biso   1.000  C 
  H48      1.0000 0.17413  0.04881  0.52890  Biso   1.000  H 
  N25      1.0000 0.66676  0.59036  0.50491  Biso   1.000  N 
  N26      1.0000 0.81034  0.62308  0.50138  Biso   1.000  N 
  N27      1.0000 0.57335  0.79567  0.97324  Biso   1.000  N 
  N28      1.0000 0.54474  0.45455  0.43101  Biso   1.000  N 
  N29      1.0000 0.69227  0.29764  0.62753  Biso   1.000  N 
  N30      1.0000 0.10937  0.16585  0.55716  Biso   1.000  N 
  N31      1.0000 0.22159  0.14473  0.08159  Biso   1.000  N 
  N32      1.0000 0.09186  0.06337  0.83152  Biso   1.000  N 
  Zn7      1.0000 0.57392  0.51650  0.53460  Biso   1.000  Zn
  Zn8      1.0000 0.11360  0.18574  0.78751  Biso   1.000  Zn
  C49      1.0000 0.55673  0.78233  0.39768  Biso   1.000  C 
  H49      1.0000 0.53541  0.74435  0.44357  Biso   1.000  H 
  C50      1.0000 0.57786  0.81462  0.28289  Biso   1.000  C 
  H50      1.0000 0.58225  0.80570  0.22504  Biso   1.000  H 
  C51      1.0000 0.57944  0.89166  0.32394  Biso   1.000  C 
  H51      1.0000 0.58905  0.95517  0.29973  Biso   1.000  H 
  C52      1.0000 0.04513  0.94105  0.88676  Biso   1.000  C 
  H52      1.0000 0.00227  0.89655  0.91043  Biso   1.000  H 
  C53      1.0000 0.86088  0.65485  0.67560  Biso   1.000  C 
  H53      1.0000 0.83136  0.70551  0.64429  Biso   1.000  H 
  C54      1.0000 0.94935  0.54255  0.69718  Biso   1.000  C 
  H54      1.0000 0.99338  0.48597  0.68909  Biso   1.000  H 
  C55      1.0000 0.45535  0.10025  0.39007  Biso   1.000  C 
  H55      1.0000 0.41781  0.06141  0.34897  Biso   1.000  H 
  C56      1.0000 0.33831  0.83171  0.74754  Biso   1.000  C 
  H56      1.0000 0.29306  0.78077  0.71984  Biso   1.000  H 
  C57      1.0000 0.47675  0.40418  0.40961  Biso   1.000  C 
  H57      1.0000 0.41473  0.40342  0.43745  Biso   1.000  H 
  C58      1.0000 0.56993  0.39656  0.32118  Biso   1.000  C 
  H58      1.0000 0.60413  0.37622  0.27173  Biso   1.000  H 
  C59      1.0000 0.03553  0.75520  0.51861  Biso   1.000  C 
  H59      1.0000 0.97363  0.78630  0.52906  Biso   1.000  H 
  C60      1.0000 0.54816  0.13251  0.47385  Biso   1.000  C 
  H60      1.0000 0.60229  0.12171  0.51666  Biso   1.000  H 
  N33      1.0000 0.55722  0.74657  0.33184  Biso   1.000  N 
  N34      1.0000 0.56631  0.87157  0.39556  Biso   1.000  N 
  N35      1.0000 0.03342  0.66651  0.50472  Biso   1.000  N 
  N36      1.0000 0.13207  0.93218  0.87367  Biso   1.000  N 
  N37      1.0000 0.91521  0.58813  0.64163  Biso   1.000  N 
  N38      1.0000 0.50787  0.06420  0.43869  Biso   1.000  N 
  N39      1.0000 0.31686  0.86786  0.81776  Biso   1.000  N 
  N40      1.0000 0.48638  0.37091  0.34288  Biso   1.000  N 
  Zn9      1.0000 0.92466  0.59305  0.52948  Biso   1.000  Zn
  Zn10     1.0000 0.54751  0.95018  0.46734  Biso   1.000  Zn
  C61      1.0000 0.66298  0.32868  0.09154  Biso   1.000  C 
  H61      1.0000 0.60246  0.36138  0.07839  Biso   1.000  H 
  C62      1.0000 0.77034  0.23800  0.08754  Biso   1.000  C 
  H62      1.0000 0.80780  0.18118  0.06541  Biso   1.000  H 
  C63      1.0000 0.79638  0.31195  0.12639  Biso   1.000  C 
  H63      1.0000 0.86469  0.32811  0.14708  Biso   1.000  H 
  C64      1.0000 0.67342  0.99710  0.11104  Biso   1.000  C 
  H64      1.0000 0.73326  0.03198  0.11060  Biso   1.000  H 
  C65      1.0000 0.42743  0.28061  0.08637  Biso   1.000  C 
  H65      1.0000 0.42007  0.31532  0.03536  Biso   1.000  H 
  C66      1.0000 0.47495  0.19225  0.16960  Biso   1.000  C 
  H66      1.0000 0.50243  0.13146  0.19472  Biso   1.000  H 
  C67      1.0000 0.16179  0.41982  0.10341  Biso   1.000  C 
  H67      1.0000 0.11158  0.38193  0.13525  Biso   1.000  H 
  C68      1.0000 0.87853  0.40873  0.52492  Biso   1.000  C 
  H68      1.0000 0.81359  0.43720  0.54841  Biso   1.000  H 
  C69      1.0000 0.94645  0.50258  0.16138  Biso   1.000  C 
  H69      1.0000 0.94996  0.51006  0.10239  Biso   1.000  H 
  C70      1.0000 0.96003  0.53235  0.27707  Biso   1.000  C 
  H70      1.0000 0.99286  0.54915  0.32967  Biso   1.000  H 
  C71      1.0000 0.64079  0.15290  0.81813  Biso   1.000  C 
  H71      1.0000 0.67679  0.17180  0.76742  Biso   1.000  H 
  C72      1.0000 0.27529  0.45040  0.03980  Biso   1.000  C 
  H72      1.0000 0.33454  0.43487  0.00568  Biso   1.000  H 
  N41      1.0000 0.68504  0.24886  0.06684  Biso   1.000  N 
  N42      1.0000 0.72552  0.36690  0.12548  Biso   1.000  N 
  N43      1.0000 0.59008  0.07695  0.82648  Biso   1.000  N 
  N44      1.0000 0.59645  0.04309  0.09000  Biso   1.000  N 
  N45      1.0000 0.47886  0.20737  0.09605  Biso   1.000  N 
  N46      1.0000 0.22634  0.38250  0.06552  Biso   1.000  N 
  N47      1.0000 0.94302  0.46948  0.50759  Biso   1.000  N 
  N48      1.0000 0.00556  0.53094  0.21022  Biso   1.000  N 
  Zn11     1.0000 0.59170  0.16151  0.04544  Biso   1.000  Zn
  Zn12     1.0000 0.11635  0.58881  0.18302  Biso   1.000  Zn
  C73      1.0000 0.21688  0.25894  0.89566  Biso   1.000  C 
  H73      1.0000 0.15396  0.27831  0.91915  Biso   1.000  H 
  C74      1.0000 0.35350  0.21934  0.88887  Biso   1.000  C 
  H74      1.0000 0.42181  0.20283  0.90289  Biso   1.000  H 
  C75      1.0000 0.31416  0.20960  0.81986  Biso   1.000  C 
  H75      1.0000 0.34900  0.17517  0.77495  Biso   1.000  H 
  C76      1.0000 0.93717  0.26483  0.80689  Biso   1.000  C 
  H76      1.0000 0.91161  0.20630  0.77559  Biso   1.000  H 
  C77      1.0000 0.17835  0.00640  0.08066  Biso   1.000  C 
  H77      1.0000 0.16462  0.93746  0.06217  Biso   1.000  H 
  C78      1.0000 0.21437  0.11451  0.15159  Biso   1.000  C 
  H78      1.0000 0.22048  0.14882  0.20428  Biso   1.000  H 
  C79      1.0000 0.55952  0.08537  0.89617  Biso   1.000  C 
  H79      1.0000 0.51118  0.04254  0.92326  Biso   1.000  H 
  C80      1.0000 0.61716  0.41440  0.66892  Biso   1.000  C 
  H80      1.0000 0.58688  0.46283  0.70550  Biso   1.000  H 
  C81      1.0000 0.57509  0.97840  0.63240  Biso   1.000  C 
  H81      1.0000 0.53448  0.03556  0.64513  Biso   1.000  H 
  C82      1.0000 0.64926  0.85898  0.66218  Biso   1.000  C 
  H82      1.0000 0.68559  0.81270  0.69429  Biso   1.000  H 
  C83      1.0000 0.24177  0.52674  0.06570  Biso   1.000  C 
  H83      1.0000 0.25876  0.59220  0.05146  Biso   1.000  H 
  C84      1.0000 0.64064  0.20028  0.88192  Biso   1.000  C 
  H84      1.0000 0.66969  0.26398  0.89729  Biso   1.000  H 
  N49      1.0000 0.28619  0.25087  0.93646  Biso   1.000  N 
  N50      1.0000 0.22749  0.23720  0.82540  Biso   1.000  N 
  N51      1.0000 0.16771  0.50877  0.10526  Biso   1.000  N 
  N52      1.0000 0.02355  0.27147  0.80829  Biso   1.000  N 
  N53      1.0000 0.18846  0.03299  0.15228  Biso   1.000  N 
  N54      1.0000 0.59218  0.15426  0.93152  Biso   1.000  N 
  N55      1.0000 0.60884  0.41427  0.59414  Biso   1.000  N 
  N56      1.0000 0.61023  0.93479  0.69161  Biso   1.000  N 
  Zn13     1.0000 0.26892  0.25783  0.04528  Biso   1.000  Zn
  Zn14     1.0000 0.57170  0.96077  0.78904  Biso   1.000  Zn
  C85      1.0000 0.41685  0.60938  0.49781  Biso   1.000  C 
  H85      1.0000 0.39507  0.56941  0.45313  Biso   1.000  H 
  C86      1.0000 0.41634  0.72346  0.56737  Biso   1.000  C 
  H86      1.0000 0.39312  0.78688  0.58780  Biso   1.000  H 
  C87      1.0000 0.47153  0.66371  0.59857  Biso   1.000  C 
  H87      1.0000 0.51027  0.67174  0.64662  Biso   1.000  H 
  C88      1.0000 0.31253  0.56458  0.25628  Biso   1.000  C 
  H88      1.0000 0.33936  0.52871  0.20889  Biso   1.000  H 
  C89      1.0000 0.35502  0.83772  0.31988  Biso   1.000  C 
  H89      1.0000 0.42135  0.81265  0.32128  Biso   1.000  H 
  C90      1.0000 0.23070  0.88479  0.36311  Biso   1.000  C 
  H90      1.0000 0.17294  0.89573  0.39729  Biso   1.000  H 
  C91      1.0000 0.11530  0.64671  0.48236  Biso   1.000  C 
  H91      1.0000 0.13636  0.58260  0.46023  Biso   1.000  H 
  C92      1.0000 0.01960  0.75526  0.13552  Biso   1.000  C 
  H92      1.0000 0.97514  0.71556  0.10537  Biso   1.000  H 
  C93      1.0000 0.10383  0.09700  0.35024  Biso   1.000  C 
  H93      1.0000 0.17208  0.12196  0.35930  Biso   1.000  H 
  C94      1.0000 0.97937  0.04406  0.31639  Biso   1.000  C 
  H94      1.0000 0.93533  0.99800  0.29286  Biso   1.000  H 
  C95      1.0000 0.51799  0.20923  0.44697  Biso   1.000  C 
  H95      1.0000 0.53382  0.27578  0.46712  Biso   1.000  H 
  C96      1.0000 0.11964  0.78642  0.50272  Biso   1.000  C 
  H96      1.0000 0.13723  0.85565  0.50611  Biso   1.000  H 
  N57      1.0000 0.38192  0.69177  0.50489  Biso   1.000  N 
  N58      1.0000 0.46745  0.58678  0.55570  Biso   1.000  N 
  N59      1.0000 0.45517  0.18787  0.39185  Biso   1.000  N 
  N60      1.0000 0.22070  0.57709  0.25683  Biso   1.000  N 
  N61      1.0000 0.30073  0.83595  0.38238  Biso   1.000  N 
  N62      1.0000 0.16903  0.71627  0.47915  Biso   1.000  N 
  N63      1.0000 0.09098  0.71336  0.16939  Biso   1.000  N 
  N64      1.0000 0.06898  0.03484  0.30307  Biso   1.000  N 
  Zn15     1.0000 0.28769  0.72249  0.43517  Biso   1.000  Zn
  Zn16     1.0000 0.14435  0.96552  0.23795  Biso   1.000  Zn
