data_image0
_cell_length_a       15.4231
_cell_length_b       15.4042
_cell_length_c       18.4379
_cell_angle_alpha    90
_cell_angle_beta     90
_cell_angle_gamma    90

_symmetry_space_group_name_H-M    "P 1"
_symmetry_int_tables_number       1

loop_
  _symmetry_equiv_pos_as_xyz
  'x, y, z'

loop_
  _atom_site_label
  _atom_site_occupancy
  _atom_site_fract_x
  _atom_site_fract_y
  _atom_site_fract_z
  _atom_site_thermal_displace_type
  _atom_site_B_iso_or_equiv
  _atom_site_type_symbol
  C1       1.0000 0.13874  0.05160  0.53086  Biso   1.000  C 
  H1       1.0000 0.12353  0.05891  0.47499  Biso   1.000  H 
  C2       1.0000 0.20031  0.09738  0.63514  Biso   1.000  C 
  H2       1.0000 0.23221  0.14279  0.67238  Biso   1.000  H 
  C3       1.0000 0.18757  0.00788  0.63883  Biso   1.000  C 
  H3       1.0000 0.19425  0.96667  0.68914  Biso   1.000  H 
  C4       1.0000 0.02178  0.02913  0.01443  Biso   1.000  C 
  H4       1.0000 0.98748  0.07737  0.97901  Biso   1.000  H 
  C5       1.0000 0.14112  0.28249  0.36487  Biso   1.000  C 
  H5       1.0000 0.06980  0.29144  0.36859  Biso   1.000  H 
  C6       1.0000 0.27233  0.24105  0.38832  Biso   1.000  C 
  H6       1.0000 0.32228  0.21233  0.41987  Biso   1.000  H 
  C7       1.0000 0.73458  0.78772  0.80974  Biso   1.000  C 
  H7       1.0000 0.70166  0.72831  0.82569  Biso   1.000  H 
  C8       1.0000 0.51523  0.29289  0.14960  Biso   1.000  C 
  H8       1.0000 0.57842  0.30839  0.17792  Biso   1.000  H 
  C9       1.0000 0.11627  0.72655  0.11707  Biso   1.000  C 
  H9       1.0000 0.05944  0.73097  0.08342  Biso   1.000  H 
  C10      1.0000 0.21019  0.72832  0.20368  Biso   1.000  C 
  H10      1.0000 0.24462  0.75371  0.24835  Biso   1.000  H 
  C11      1.0000 0.94846  0.37377  0.60336  Biso   1.000  C 
  H11      1.0000 0.89665  0.42461  0.60874  Biso   1.000  H 
  C12      1.0000 0.74449  0.92908  0.79550  Biso   1.000  C 
  H12      1.0000 0.72600  0.99827  0.80802  Biso   1.000  H 
  N1       1.0000 0.16899  0.12222  0.56817  Biso   1.000  N 
  N2       1.0000 0.14920  0.98001  0.57452  Biso   1.000  N 
  N3       1.0000 0.98127  0.32328  0.65894  Biso   1.000  N 
  N4       1.0000 0.09761  0.98435  0.99587  Biso   1.000  N 
  N5       1.0000 0.19126  0.24285  0.41929  Biso   1.000  N 
  N6       1.0000 0.69227  0.86378  0.82459  Biso   1.000  N 
  N7       1.0000 0.43593  0.29187  0.18896  Biso   1.000  N 
  N8       1.0000 0.14442  0.78022  0.17109  Biso   1.000  N 
  Zn1      1.0000 0.16502  0.23927  0.52111  Biso   1.000  Zn
  Zn2      1.0000 0.39034  0.30715  0.29282  Biso   1.000  Zn
  C13      1.0000 0.14259  0.48599  0.81169  Biso   1.000  C 
  H13      1.0000 0.13484  0.47751  0.86870  Biso   1.000  H 
  C14      1.0000 0.20535  0.51657  0.70648  Biso   1.000  C 
  H14      1.0000 0.25140  0.54583  0.66727  Biso   1.000  H 
  C15      1.0000 0.15151  0.44545  0.69794  Biso   1.000  C 
  H15      1.0000 0.14152  0.40465  0.64880  Biso   1.000  H 
  C16      1.0000 0.72181  0.17881  0.69896  Biso   1.000  C 
  H16      1.0000 0.75650  0.13271  0.73228  Biso   1.000  H 
  C17      1.0000 0.45315  0.81177  0.73973  Biso   1.000  C 
  H17      1.0000 0.47319  0.87136  0.70943  Biso   1.000  H 
  C18      1.0000 0.43936  0.72320  0.82772  Biso   1.000  C 
  H18      1.0000 0.44437  0.69370  0.88289  Biso   1.000  H 
  C19      1.0000 0.91139  0.63321  0.07507  Biso   1.000  C 
  H19      1.0000 0.93130  0.64312  0.13243  Biso   1.000  H 
  C20      1.0000 0.81933  0.44528  0.78995  Biso   1.000  C 
  H20      1.0000 0.77619  0.38650  0.80720  Biso   1.000  H 
  C21      1.0000 0.05371  0.17194  0.83201  Biso   1.000  C 
  H21      1.0000 0.12303  0.19325  0.83217  Biso   1.000  H 
  C22      1.0000 0.91408  0.17622  0.81683  Biso   1.000  C 
  H22      1.0000 0.84933  0.20202  0.80445  Biso   1.000  H 
  C23      1.0000 0.51080  0.79745  0.01791  Biso   1.000  C 
  H23      1.0000 0.44137  0.82481  0.00717  Biso   1.000  H 
  C24      1.0000 0.91244  0.56559  0.96896  Biso   1.000  C 
  H24      1.0000 0.93861  0.53399  0.92084  Biso   1.000  H 
  N9       1.0000 0.20531  0.53969  0.78162  Biso   1.000  N 
  N10      1.0000 0.11140  0.42871  0.76255  Biso   1.000  N 
  N11      1.0000 0.57373  0.80045  0.96390  Biso   1.000  N 
  N12      1.0000 0.64113  0.20812  0.72066  Biso   1.000  N 
  N13      1.0000 0.48717  0.79716  0.80740  Biso   1.000  N 
  N14      1.0000 0.96568  0.58555  0.03222  Biso   1.000  N 
  N15      1.0000 0.91144  0.45363  0.78771  Biso   1.000  N 
  N16      1.0000 0.98789  0.22826  0.80894  Biso   1.000  N 
  Zn3      1.0000 0.28757  0.62878  0.82740  Biso   1.000  Zn
  Zn4      1.0000 0.00086  0.34159  0.76322  Biso   1.000  Zn
  C25      1.0000 0.75125  0.51610  0.15246  Biso   1.000  C 
  H25      1.0000 0.79871  0.51471  0.11282  Biso   1.000  H 
  C26      1.0000 0.68430  0.50249  0.25240  Biso   1.000  C 
  H26      1.0000 0.66045  0.47976  0.30681  Biso   1.000  H 
  C27      1.0000 0.65399  0.57529  0.21611  Biso   1.000  C 
  H27      1.0000 0.60156  0.62303  0.23127  Biso   1.000  H 
  C28      1.0000 0.99692  0.44442  0.26782  Biso   1.000  C 
  H28      1.0000 0.99233  0.43653  0.32704  Biso   1.000  H 
  C29      1.0000 0.84573  0.71651  0.24950  Biso   1.000  C 
  H29      1.0000 0.80909  0.66571  0.27406  Biso   1.000  H 
  C30      1.0000 0.87249  0.81884  0.17570  Biso   1.000  C 
  H30      1.0000 0.86251  0.86677  0.12841  Biso   1.000  H 
  C31      1.0000 0.64912  0.77996  0.99706  Biso   1.000  C 
  H31      1.0000 0.71482  0.77364  0.96846  Biso   1.000  H 
  C32      1.0000 0.17276  0.93991  0.32774  Biso   1.000  C 
  H32      1.0000 0.22076  0.96389  0.29093  Biso   1.000  H 
  C33      1.0000 0.52746  0.99197  0.18526  Biso   1.000  C 
  H33      1.0000 0.59134  0.98497  0.21277  Biso   1.000  H 
  C34      1.0000 0.40078  0.95300  0.14469  Biso   1.000  C 
  H34      1.0000 0.34249  0.90892  0.14082  Biso   1.000  H 
  C35      1.0000 0.83316  0.60420  0.97954  Biso   1.000  C 
  H35      1.0000 0.77839  0.59815  0.94297  Biso   1.000  H 
  C36      1.0000 0.55321  0.77203  0.08533  Biso   1.000  C 
  H36      1.0000 0.53026  0.76123  0.14137  Biso   1.000  H 
  N17      1.0000 0.74497  0.46501  0.21111  Biso   1.000  N 
  N18      1.0000 0.69424  0.58386  0.15114  Biso   1.000  N 
  N19      1.0000 0.83225  0.64910  0.04997  Biso   1.000  N 
  N20      1.0000 0.93484  0.41269  0.22125  Biso   1.000  N 
  N21      1.0000 0.81089  0.75651  0.19296  Biso   1.000  N 
  N22      1.0000 0.63696  0.75575  0.06717  Biso   1.000  N 
  N23      1.0000 0.08947  0.91468  0.30564  Biso   1.000  N 
  N24      1.0000 0.46863  0.92790  0.18907  Biso   1.000  N 
  Zn5      1.0000 0.82151  0.36516  0.24185  Biso   1.000  Zn
  Zn6      1.0000 0.73606  0.70175  0.11640  Biso   1.000  Zn
  C37      1.0000 0.78144  0.32829  0.39616  Biso   1.000  C 
  H37      1.0000 0.77068  0.25930  0.38082  Biso   1.000  H 
  C38      1.0000 0.80368  0.45332  0.45003  Biso   1.000  C 
  H38      1.0000 0.79192  0.50294  0.49365  Biso   1.000  H 
  C39      1.0000 0.83321  0.45964  0.37971  Biso   1.000  C 
  H39      1.0000 0.85677  0.51562  0.34582  Biso   1.000  H 
  C40      1.0000 0.43425  0.57158  0.35712  Biso   1.000  C 
  H40      1.0000 0.47479  0.63479  0.36182  Biso   1.000  H 
  C41      1.0000 0.33012  0.31787  0.60179  Biso   1.000  C 
  H41      1.0000 0.33605  0.25442  0.63051  Biso   1.000  H 
  C42      1.0000 0.25362  0.41256  0.54331  Biso   1.000  C 
  H42      1.0000 0.20308  0.44288  0.50784  Biso   1.000  H 
  C43      1.0000 0.04042  0.26712  0.62526  Biso   1.000  C 
  H43      1.0000 0.07790  0.20936  0.64673  Biso   1.000  H 
  C44      1.0000 0.14092  0.31044  0.96777  Biso   1.000  C 
  H44      1.0000 0.12261  0.24892  0.94531  Biso   1.000  H 
  C45      1.0000 0.21359  0.81429  0.84835  Biso   1.000  C 
  H45      1.0000 0.27387  0.83551  0.82552  Biso   1.000  H 
  C46      1.0000 0.08522  0.79911  0.89919  Biso   1.000  C 
  H46      1.0000 0.01927  0.81681  0.91703  Biso   1.000  H 
  C47      1.0000 0.81826  0.89107  0.76336  Biso   1.000  C 
  H47      1.0000 0.88139  0.91943  0.74494  Biso   1.000  H 
  C48      1.0000 0.99128  0.35280  0.53721  Biso   1.000  C 
  H48      1.0000 0.98044  0.38376  0.48569  Biso   1.000  H 
  N25      1.0000 0.77417  0.36917  0.46321  Biso   1.000  N 
  N26      1.0000 0.81967  0.38068  0.34782  Biso   1.000  N 
  N27      1.0000 0.81255  0.79996  0.77675  Biso   1.000  N 
  N28      1.0000 0.38840  0.53540  0.41353  Biso   1.000  N 
  N29      1.0000 0.25389  0.32473  0.56194  Biso   1.000  N 
  N30      1.0000 0.04656  0.28673  0.55279  Biso   1.000  N 
  N31      1.0000 0.21562  0.32144  0.00739  Biso   1.000  N 
  N32      1.0000 0.14455  0.86030  0.87696  Biso   1.000  N 
  Zn7      1.0000 0.38076  0.56153  0.52137  Biso   1.000  Zn
  Zn8      1.0000 0.13602  0.99114  0.89330  Biso   1.000  Zn
  C49      1.0000 0.54100  0.49025  0.52217  Biso   1.000  C 
  H49      1.0000 0.53606  0.48993  0.46394  Biso   1.000  H 
  C50      1.0000 0.54211  0.54425  0.62593  Biso   1.000  C 
  H50      1.0000 0.51894  0.58076  0.67331  Biso   1.000  H 
  C51      1.0000 0.60181  0.47727  0.62504  Biso   1.000  C 
  H51      1.0000 0.64643  0.44757  0.66642  Biso   1.000  H 
  C52      1.0000 0.12583  0.71962  0.89633  Biso   1.000  C 
  H52      1.0000 0.10526  0.65449  0.91226  Biso   1.000  H 
  C53      1.0000 0.78287  0.52564  0.76982  Biso   1.000  C 
  H53      1.0000 0.71511  0.54334  0.77447  Biso   1.000  H 
  C54      1.0000 0.92766  0.53510  0.76019  Biso   1.000  C 
  H54      1.0000 0.99436  0.55636  0.75281  Biso   1.000  H 
  C55      1.0000 0.52240  0.31410  0.41692  Biso   1.000  C 
  H55      1.0000 0.49745  0.37544  0.43706  Biso   1.000  H 
  C56      1.0000 0.38423  0.75633  0.71983  Biso   1.000  C 
  H56      1.0000 0.34657  0.75403  0.66850  Biso   1.000  H 
  C57      1.0000 0.35684  0.45541  0.38652  Biso   1.000  C 
  H57      1.0000 0.30611  0.41753  0.40677  Biso   1.000  H 
  C58      1.0000 0.42913  0.50922  0.29872  Biso   1.000  C 
  H58      1.0000 0.46415  0.50886  0.24851  Biso   1.000  H 
  C59      1.0000 0.93949  0.67712  0.57739  Biso   1.000  C 
  H59      1.0000 0.90011  0.61989  0.56733  Biso   1.000  H 
  C60      1.0000 0.58744  0.18782  0.41375  Biso   1.000  C 
  H60      1.0000 0.63576  0.13599  0.42874  Biso   1.000  H 
  N33      1.0000 0.50277  0.55702  0.56070  Biso   1.000  N 
  N34      1.0000 0.60101  0.44148  0.55634  Biso   1.000  N 
  N35      1.0000 0.94005  0.72075  0.64007  Biso   1.000  N 
  N36      1.0000 0.21123  0.72880  0.86838  Biso   1.000  N 
  N37      1.0000 0.84904  0.58324  0.75086  Biso   1.000  N 
  N38      1.0000 0.58147  0.26513  0.45379  Biso   1.000  N 
  N39      1.0000 0.37643  0.70176  0.77960  Biso   1.000  N 
  N40      1.0000 0.38339  0.43799  0.31683  Biso   1.000  N 
  Zn9      1.0000 0.86449  0.70434  0.72119  Biso   1.000  Zn
  Zn10     1.0000 0.66559  0.33172  0.52126  Biso   1.000  Zn
  C61      1.0000 0.70182  0.22576  0.17599  Biso   1.000  C 
  H61      1.0000 0.65416  0.23639  0.22192  Biso   1.000  H 
  C62      1.0000 0.77452  0.17923  0.08056  Biso   1.000  C 
  H62      1.0000 0.79760  0.14835  0.03068  Biso   1.000  H 
  C63      1.0000 0.83157  0.22783  0.12381  Biso   1.000  C 
  H63      1.0000 0.89885  0.24043  0.12248  Biso   1.000  H 
  C64      1.0000 0.42046  0.03339  0.11095  Biso   1.000  C 
  H64      1.0000 0.38617  0.07271  0.06831  Biso   1.000  H 
  C65      1.0000 0.49292  0.28129  0.08019  Biso   1.000  C 
  H65      1.0000 0.53833  0.28708  0.03522  Biso   1.000  H 
  C66      1.0000 0.37248  0.27733  0.14057  Biso   1.000  C 
  H66      1.0000 0.30331  0.26186  0.15188  Biso   1.000  H 
  C67      1.0000 0.34990  0.44872  0.88354  Biso   1.000  C 
  H67      1.0000 0.31984  0.41708  0.83928  Biso   1.000  H 
  C68      1.0000 0.19297  0.30515  0.30558  Biso   1.000  C 
  H68      1.0000 0.17319  0.33326  0.24792  Biso   1.000  H 
  C69      1.0000 0.95808  0.43914  0.15364  Biso   1.000  C 
  H69      1.0000 0.92249  0.42738  0.10505  Biso   1.000  H 
  C70      1.0000 0.05641  0.48938  0.22635  Biso   1.000  C 
  H70      1.0000 0.11663  0.52691  0.23957  Biso   1.000  H 
  C71      1.0000 0.57480  0.06812  0.86252  Biso   1.000  C 
  H71      1.0000 0.57253  0.07058  0.80272  Biso   1.000  H 
  C72      1.0000 0.43900  0.46597  0.97514  Biso   1.000  C 
  H72      1.0000 0.48608  0.43986  0.01492  Biso   1.000  H 
  N41      1.0000 0.69346  0.18168  0.11350  Biso   1.000  N 
  N42      1.0000 0.78393  0.25504  0.18354  Biso   1.000  N 
  N43      1.0000 0.56076  0.99133  0.90101  Biso   1.000  N 
  N44      1.0000 0.50143  0.05571  0.13807  Biso   1.000  N 
  N45      1.0000 0.40298  0.26644  0.07309  Biso   1.000  N 
  N46      1.0000 0.39215  0.40198  0.93704  Biso   1.000  N 
  N47      1.0000 0.27722  0.27588  0.32192  Biso   1.000  N 
  N48      1.0000 0.03575  0.48161  0.15587  Biso   1.000  N 
  Zn11     1.0000 0.57931  0.13488  0.08589  Biso   1.000  Zn
  Zn12     1.0000 0.08790  0.54956  0.07490  Biso   1.000  Zn
  C73      1.0000 0.24539  0.13992  0.93034  Biso   1.000  C 
  H73      1.0000 0.21022  0.13612  0.98150  Biso   1.000  H 
  C74      1.0000 0.33165  0.16916  0.83930  Biso   1.000  C 
  H74      1.0000 0.38385  0.20289  0.80983  Biso   1.000  H 
  C75      1.0000 0.29145  0.08849  0.82556  Biso   1.000  C 
  H75      1.0000 0.30554  0.05096  0.77459  Biso   1.000  H 
  C76      1.0000 0.94024  0.09412  0.84658  Biso   1.000  C 
  H76      1.0000 0.89548  0.03830  0.86021  Biso   1.000  H 
  C77      1.0000 0.09358  0.38968  0.97746  Biso   1.000  C 
  H77      1.0000 0.03028  0.40853  0.96068  Biso   1.000  H 
  C78      1.0000 0.21379  0.40207  0.03646  Biso   1.000  C 
  H78      1.0000 0.27252  0.43842  0.06055  Biso   1.000  H 
  C79      1.0000 0.55562  0.01331  0.96970  Biso   1.000  C 
  H79      1.0000 0.54453  0.97351  0.01763  Biso   1.000  H 
  C80      1.0000 0.36991  0.39679  0.60659  Biso   1.000  C 
  H80      1.0000 0.41864  0.42097  0.64166  Biso   1.000  H 
  C81      1.0000 0.62190  0.26646  0.66643  Biso   1.000  C 
  H81      1.0000 0.56821  0.31217  0.67838  Biso   1.000  H 
  C82      1.0000 0.75125  0.21872  0.63473  Biso   1.000  C 
  H82      1.0000 0.80327  0.20564  0.59303  Biso   1.000  H 
  C83      1.0000 0.42588  0.54720  0.94395  Biso   1.000  C 
  H83      1.0000 0.45530  0.60688  0.96436  Biso   1.000  H 
  C84      1.0000 0.57441  0.13625  0.91438  Biso   1.000  C 
  H84      1.0000 0.58630  0.20498  0.90186  Biso   1.000  H 
  N49      1.0000 0.30847  0.19884  0.91083  Biso   1.000  N 
  N50      1.0000 0.23359  0.07419  0.88356  Biso   1.000  N 
  N51      1.0000 0.37407  0.53509  0.88474  Biso   1.000  N 
  N52      1.0000 0.03027  0.08924  0.85003  Biso   1.000  N 
  N53      1.0000 0.14258  0.44699  0.01653  Biso   1.000  N 
  N54      1.0000 0.56605  0.10052  0.98226  Biso   1.000  N 
  N55      1.0000 0.32786  0.45451  0.56360  Biso   1.000  N 
  N56      1.0000 0.68205  0.27544  0.61184  Biso   1.000  N 
  Zn13     1.0000 0.34323  0.29415  0.97939  Biso   1.000  Zn
  Zn14     1.0000 0.56945  0.87113  0.87394  Biso   1.000  Zn
  C85      1.0000 0.24791  0.71169  0.53985  Biso   1.000  C 
  H85      1.0000 0.19391  0.66554  0.54159  Biso   1.000  H 
  C86      1.0000 0.32744  0.82697  0.53795  Biso   1.000  C 
  H86      1.0000 0.34320  0.89411  0.53359  Biso   1.000  H 
  C87      1.0000 0.38304  0.75539  0.52873  Biso   1.000  C 
  H87      1.0000 0.45139  0.75394  0.53219  Biso   1.000  H 
  C88      1.0000 0.21311  0.64773  0.17096  Biso   1.000  C 
  H88      1.0000 0.25582  0.59740  0.18687  Biso   1.000  H 
  C89      1.0000 0.18444  0.92656  0.40164  Biso   1.000  C 
  H89      1.0000 0.23873  0.92747  0.44195  Biso   1.000  H 
  C90      1.0000 0.04762  0.89417  0.37117  Biso   1.000  C 
  H90      1.0000 0.98214  0.87659  0.37619  Biso   1.000  H 
  C91      1.0000 0.99552  0.78902  0.63327  Biso   1.000  C 
  H91      1.0000 0.01181  0.83637  0.67537  Biso   1.000  H 
  C92      1.0000 0.92777  0.74637  0.26538  Biso   1.000  C 
  H92      1.0000 0.97219  0.71691  0.30342  Biso   1.000  H 
  C93      1.0000 0.12284  0.94109  0.05643  Biso   1.000  C 
  H93      1.0000 0.18062  0.90187  0.06140  Biso   1.000  H 
  C94      1.0000 0.00737  0.01400  0.08883  Biso   1.000  C 
  H94      1.0000 0.95791  0.03873  0.12479  Biso   1.000  H 
  C95      1.0000 0.52633  0.18977  0.35696  Biso   1.000  C 
  H95      1.0000 0.51126  0.14035  0.31671  Biso   1.000  H 
  C96      1.0000 0.99777  0.71660  0.53311  Biso   1.000  C 
  H96      1.0000 0.02132  0.70811  0.47603  Biso   1.000  H 
  N57      1.0000 0.24230  0.79536  0.53791  Biso   1.000  N 
  N58      1.0000 0.33142  0.68028  0.53827  Biso   1.000  N 
  N59      1.0000 0.48400  0.26929  0.35787  Biso   1.000  N 
  N60      1.0000 0.15730  0.64875  0.11492  Biso   1.000  N 
  N61      1.0000 0.10360  0.90409  0.42704  Biso   1.000  N 
  N62      1.0000 0.03210  0.78734  0.56847  Biso   1.000  N 
  N63      1.0000 0.94577  0.81435  0.21630  Biso   1.000  N 
  N64      1.0000 0.06554  0.95364  0.11061  Biso   1.000  N 
  Zn15     1.0000 0.12532  0.86294  0.53049  Biso   1.000  Zn
  Zn16     1.0000 0.06513  0.87842  0.20204  Biso   1.000  Zn
