data_image0
_cell_length_a       15.4231
_cell_length_b       15.4042
_cell_length_c       18.4379
_cell_angle_alpha    90
_cell_angle_beta     90
_cell_angle_gamma    90

_symmetry_space_group_name_H-M    "P 1"
_symmetry_int_tables_number       1

loop_
  _symmetry_equiv_pos_as_xyz
  'x, y, z'

loop_
  _atom_site_label
  _atom_site_occupancy
  _atom_site_fract_x
  _atom_site_fract_y
  _atom_site_fract_z
  _atom_site_thermal_displace_type
  _atom_site_B_iso_or_equiv
  _atom_site_type_symbol
  C1       1.0000 0.32378  0.23398  0.39188  Biso   1.000  C 
  H1       1.0000 0.32753  0.27280  0.43958  Biso   1.000  H 
  C2       1.0000 0.27732  0.16416  0.29516  Biso   1.000  C 
  H2       1.0000 0.23774  0.11914  0.26077  Biso   1.000  H 
  C3       1.0000 0.35453  0.20828  0.27920  Biso   1.000  C 
  H3       1.0000 0.38661  0.21088  0.22338  Biso   1.000  H 
  C4       1.0000 0.06947  0.02734  0.39755  Biso   1.000  C 
  H4       1.0000 0.04511  0.02372  0.45488  Biso   1.000  H 
  C5       1.0000 0.01257  0.32213  0.38381  Biso   1.000  C 
  H5       1.0000 0.96857  0.31879  0.42825  Biso   1.000  H 
  C6       1.0000 0.12430  0.32297  0.30998  Biso   1.000  C 
  H6       1.0000 0.18220  0.29566  0.28939  Biso   1.000  H 
  C7       1.0000 0.92355  0.90362  0.61870  Biso   1.000  C 
  H7       1.0000 0.98868  0.89438  0.59566  Biso   1.000  H 
  C8       1.0000 0.46111  0.35061  0.14588  Biso   1.000  C 
  H8       1.0000 0.41156  0.39902  0.13714  Biso   1.000  H 
  C9       1.0000 0.29091  0.46394  0.26182  Biso   1.000  C 
  H9       1.0000 0.27712  0.40425  0.23175  Biso   1.000  H 
  C10      1.0000 0.35383  0.55059  0.33619  Biso   1.000  C 
  H10      1.0000 0.40024  0.56335  0.37819  Biso   1.000  H 
  C11      1.0000 0.16075  0.05783  0.60249  Biso   1.000  C 
  H11      1.0000 0.17626  0.99562  0.63152  Biso   1.000  H 
  C12      1.0000 0.81798  0.94837  0.68741  Biso   1.000  C 
  H12      1.0000 0.78707  0.98777  0.72906  Biso   1.000  H 
  N1       1.0000 0.25873  0.17607  0.36713  Biso   1.000  N 
  N2       1.0000 0.37785  0.25684  0.33587  Biso   1.000  N 
  N3       1.0000 0.08521  0.10635  0.61786  Biso   1.000  N 
  N4       1.0000 0.11814  0.96254  0.36385  Biso   1.000  N 
  N5       1.0000 0.08648  0.27277  0.36357  Biso   1.000  N 
  N6       1.0000 0.90042  0.97035  0.66210  Biso   1.000  N 
  N7       1.0000 0.49593  0.33303  0.21612  Biso   1.000  N 
  N8       1.0000 0.36415  0.47222  0.29994  Biso   1.000  N 
  Zn1      1.0000 0.13931  0.17709  0.41164  Biso   1.000  Zn
  Zn2      1.0000 0.44501  0.37325  0.31487  Biso   1.000  Zn
  C13      1.0000 0.07281  0.72381  0.87337  Biso   1.000  C 
  H13      1.0000 0.02843  0.74898  0.83268  Biso   1.000  H 
  C14      1.0000 0.18271  0.70670  0.94665  Biso   1.000  C 
  H14      1.0000 0.23573  0.73248  0.98144  Biso   1.000  H 
  C15      1.0000 0.13334  0.62971  0.95123  Biso   1.000  C 
  H15      1.0000 0.13978  0.57168  0.98410  Biso   1.000  H 
  C16      1.0000 0.56082  0.88502  0.71295  Biso   1.000  C 
  H16      1.0000 0.58947  0.81410  0.71210  Biso   1.000  H 
  C17      1.0000 0.21859  0.79902  0.64547  Biso   1.000  C 
  H17      1.0000 0.20689  0.76094  0.59618  Biso   1.000  H 
  C18      1.0000 0.29148  0.88611  0.71615  Biso   1.000  C 
  H18      1.0000 0.33994  0.93849  0.73389  Biso   1.000  H 
  C19      1.0000 0.89738  0.65633  0.00292  Biso   1.000  C 
  H19      1.0000 0.96144  0.67922  0.01752  Biso   1.000  H 
  C20      1.0000 0.91846  0.50331  0.70856  Biso   1.000  C 
  H20      1.0000 0.92929  0.43516  0.72388  Biso   1.000  H 
  C21      1.0000 0.06154  0.39949  0.90077  Biso   1.000  C 
  H21      1.0000 0.11952  0.43629  0.89029  Biso   1.000  H 
  C22      1.0000 0.92569  0.37607  0.92653  Biso   1.000  C 
  H22      1.0000 0.85757  0.38331  0.92840  Biso   1.000  H 
  C23      1.0000 0.39461  0.84106  0.92155  Biso   1.000  C 
  H23      1.0000 0.43171  0.85385  0.87051  Biso   1.000  H 
  C24      1.0000 0.79456  0.62705  0.92384  Biso   1.000  C 
  H24      1.0000 0.76751  0.60477  0.86949  Biso   1.000  H 
  N9       1.0000 0.14502  0.76479  0.90138  Biso   1.000  N 
  N10      1.0000 0.06862  0.64239  0.90034  Biso   1.000  N 
  N11      1.0000 0.31458  0.87040  0.93521  Biso   1.000  N 
  N12      1.0000 0.51916  0.92552  0.65374  Biso   1.000  N 
  N13      1.0000 0.28454  0.86567  0.64709  Biso   1.000  N 
  N14      1.0000 0.87991  0.62006  0.93713  Biso   1.000  N 
  N15      1.0000 0.93680  0.56637  0.76077  Biso   1.000  N 
  N16      1.0000 0.98088  0.43922  0.90148  Biso   1.000  N 
  Zn3      1.0000 0.21062  0.86651  0.86609  Biso   1.000  Zn
  Zn4      1.0000 0.96771  0.56648  0.87229  Biso   1.000  Zn
  C25      1.0000 0.60485  0.76916  0.13706  Biso   1.000  C 
  H25      1.0000 0.61547  0.83749  0.11963  Biso   1.000  H 
  C26      1.0000 0.62321  0.63106  0.17556  Biso   1.000  C 
  H26      1.0000 0.66209  0.57183  0.18781  Biso   1.000  H 
  C27      1.0000 0.53472  0.65196  0.17757  Biso   1.000  C 
  H27      1.0000 0.47942  0.61495  0.19905  Biso   1.000  H 
  C28      1.0000 0.89986  0.65490  0.26389  Biso   1.000  C 
  H28      1.0000 0.85693  0.69640  0.29587  Biso   1.000  H 
  C29      1.0000 0.79957  0.87504  0.23566  Biso   1.000  C 
  H29      1.0000 0.74168  0.85559  0.26665  Biso   1.000  H 
  C30      1.0000 0.89989  0.87620  0.15038  Biso   1.000  C 
  H30      1.0000 0.94085  0.85976  0.10200  Biso   1.000  H 
  C31      1.0000 0.29703  0.86266  0.00470  Biso   1.000  C 
  H31      1.0000 0.23452  0.87533  0.02614  Biso   1.000  H 
  C32      1.0000 0.23320  0.76220  0.19154  Biso   1.000  C 
  H32      1.0000 0.22348  0.74639  0.13323  Biso   1.000  H 
  C33      1.0000 0.50943  0.99068  0.12113  Biso   1.000  C 
  H33      1.0000 0.49041  0.99413  0.06378  Biso   1.000  H 
  C34      1.0000 0.53366  0.94750  0.23440  Biso   1.000  C 
  H34      1.0000 0.53657  0.90292  0.27941  Biso   1.000  H 
  C35      1.0000 0.75677  0.67557  0.98114  Biso   1.000  C 
  H35      1.0000 0.69271  0.69662  0.98560  Biso   1.000  H 
  C36      1.0000 0.42905  0.81214  0.98851  Biso   1.000  C 
  H36      1.0000 0.49383  0.79560  0.00013  Biso   1.000  H 
  N17      1.0000 0.66840  0.70468  0.14841  Biso   1.000  N 
  N18      1.0000 0.52389  0.74026  0.14886  Biso   1.000  N 
  N19      1.0000 0.82299  0.69866  0.02737  Biso   1.000  N 
  N20      1.0000 0.88696  0.64020  0.18946  Biso   1.000  N 
  N21      1.0000 0.83016  0.82986  0.17433  Biso   1.000  N 
  N22      1.0000 0.36545  0.82581  0.04011  Biso   1.000  N 
  N23      1.0000 0.31467  0.78986  0.20788  Biso   1.000  N 
  N24      1.0000 0.48813  0.92916  0.17173  Biso   1.000  N 
  Zn5      1.0000 0.79922  0.71802  0.13300  Biso   1.000  Zn
  Zn6      1.0000 0.42111  0.81862  0.14568  Biso   1.000  Zn
  C37      1.0000 0.82587  0.15864  0.61027  Biso   1.000  C 
  H37      1.0000 0.80350  0.09620  0.58970  Biso   1.000  H 
  C38      1.0000 0.82740  0.29584  0.64310  Biso   1.000  C 
  H38      1.0000 0.80212  0.36164  0.64721  Biso   1.000  H 
  C39      1.0000 0.88974  0.24996  0.68089  Biso   1.000  C 
  H39      1.0000 0.93884  0.28144  0.71829  Biso   1.000  H 
  C40      1.0000 0.66966  0.41335  0.43320  Biso   1.000  C 
  H40      1.0000 0.72818  0.44768  0.45298  Biso   1.000  H 
  C41      1.0000 0.45785  0.25462  0.67490  Biso   1.000  C 
  H41      1.0000 0.38879  0.25566  0.69422  Biso   1.000  H 
  C42      1.0000 0.59276  0.23080  0.69606  Biso   1.000  C 
  H42      1.0000 0.65163  0.21265  0.72561  Biso   1.000  H 
  C43      1.0000 0.07407  0.16122  0.55974  Biso   1.000  C 
  H43      1.0000 0.03286  0.22052  0.56423  Biso   1.000  H 
  C44      1.0000 0.19725  0.09552  0.03901  Biso   1.000  C 
  H44      1.0000 0.26644  0.09548  0.03110  Biso   1.000  H 
  C45      1.0000 0.09771  0.99156  0.78625  Biso   1.000  C 
  H45      1.0000 0.12576  0.96224  0.73734  Biso   1.000  H 
  C46      1.0000 0.01419  0.06381  0.86260  Biso   1.000  C 
  H46      1.0000 0.97300  0.11722  0.88369  Biso   1.000  H 
  C47      1.0000 0.79444  0.86793  0.65708  Biso   1.000  C 
  H47      1.0000 0.73757  0.83094  0.66026  Biso   1.000  H 
  C48      1.0000 0.19522  0.09010  0.53876  Biso   1.000  C 
  H48      1.0000 0.25446  0.07751  0.50937  Biso   1.000  H 
  N25      1.0000 0.78685  0.23664  0.59574  Biso   1.000  N 
  N26      1.0000 0.88873  0.16406  0.65857  Biso   1.000  N 
  N27      1.0000 0.86471  0.83831  0.61489  Biso   1.000  N 
  N28      1.0000 0.64451  0.32816  0.45506  Biso   1.000  N 
  N29      1.0000 0.51518  0.22402  0.72663  Biso   1.000  N 
  N30      1.0000 0.14401  0.15805  0.51505  Biso   1.000  N 
  N31      1.0000 0.13959  0.16213  0.02532  Biso   1.000  N 
  N32      1.0000 0.03326  0.05402  0.78653  Biso   1.000  N 
  Zn7      1.0000 0.67195  0.24141  0.54264  Biso   1.000  Zn
  Zn8      1.0000 0.97987  0.07696  0.68056  Biso   1.000  Zn
  C49      1.0000 0.69538  0.78346  0.52220  Biso   1.000  C 
  H49      1.0000 0.72240  0.84180  0.49992  Biso   1.000  H 
  C50      1.0000 0.59847  0.69595  0.57172  Biso   1.000  C 
  H50      1.0000 0.53268  0.68109  0.58677  Biso   1.000  H 
  C51      1.0000 0.67787  0.65722  0.57729  Biso   1.000  C 
  H51      1.0000 0.69477  0.59100  0.59674  Biso   1.000  H 
  C52      1.0000 0.07233  0.01231  0.89828  Biso   1.000  C 
  H52      1.0000 0.07132  0.00102  0.96041  Biso   1.000  H 
  C53      1.0000 0.89872  0.53778  0.64133  Biso   1.000  C 
  H53      1.0000 0.87712  0.50495  0.59319  Biso   1.000  H 
  C54      1.0000 0.92095  0.64016  0.72271  Biso   1.000  C 
  H54      1.0000 0.91876  0.70240  0.75797  Biso   1.000  H 
  C55      1.0000 0.62154  0.05917  0.53737  Biso   1.000  C 
  H55      1.0000 0.60090  0.05908  0.59496  Biso   1.000  H 
  C56      1.0000 0.19334  0.78710  0.71865  Biso   1.000  C 
  H56      1.0000 0.14771  0.73859  0.74453  Biso   1.000  H 
  C57      1.0000 0.56824  0.31047  0.42148  Biso   1.000  C 
  H57      1.0000 0.52805  0.24699  0.42138  Biso   1.000  H 
  C58      1.0000 0.60350  0.44124  0.38765  Biso   1.000  C 
  H58      1.0000 0.59997  0.50222  0.35732  Biso   1.000  H 
  C59      1.0000 0.04485  0.66659  0.52085  Biso   1.000  C 
  H59      1.0000 0.03356  0.60319  0.54678  Biso   1.000  H 
  C60      1.0000 0.65583  0.99762  0.43279  Biso   1.000  C 
  H60      1.0000 0.65758  0.94838  0.39303  Biso   1.000  H 
  N33      1.0000 0.60672  0.77526  0.53947  Biso   1.000  N 
  N34      1.0000 0.74077  0.71032  0.54446  Biso   1.000  N 
  N35      1.0000 0.97985  0.72531  0.51271  Biso   1.000  N 
  N36      1.0000 0.12500  0.96554  0.85460  Biso   1.000  N 
  N37      1.0000 0.89563  0.62978  0.65360  Biso   1.000  N 
  N38      1.0000 0.61399  0.98466  0.50082  Biso   1.000  N 
  N39      1.0000 0.24132  0.84157  0.76606  Biso   1.000  N 
  N40      1.0000 0.53944  0.37864  0.38380  Biso   1.000  N 
  Zn9      1.0000 0.87139  0.72214  0.57604  Biso   1.000  Zn
  Zn10     1.0000 0.54113  0.88813  0.54350  Biso   1.000  Zn
  C61      1.0000 0.81238  0.09349  0.14615  Biso   1.000  C 
  H61      1.0000 0.80189  0.03149  0.12595  Biso   1.000  H 
  C62      1.0000 0.79372  0.23249  0.16789  Biso   1.000  C 
  H62      1.0000 0.76686  0.29739  0.16319  Biso   1.000  H 
  C63      1.0000 0.87607  0.21057  0.18901  Biso   1.000  C 
  H63      1.0000 0.92821  0.24452  0.22139  Biso   1.000  H 
  C64      1.0000 0.59054  0.01826  0.21726  Biso   1.000  C 
  H64      1.0000 0.62297  0.06241  0.25807  Biso   1.000  H 
  C65      1.0000 0.51372  0.31110  0.09312  Biso   1.000  C 
  H65      1.0000 0.51007  0.31418  0.03318  Biso   1.000  H 
  C66      1.0000 0.56310  0.27997  0.20220  Biso   1.000  C 
  H66      1.0000 0.60281  0.25506  0.24480  Biso   1.000  H 
  C67      1.0000 0.15990  0.37591  0.10082  Biso   1.000  C 
  H67      1.0000 0.11183  0.32559  0.11864  Biso   1.000  H 
  C68      1.0000 0.00806  0.39244  0.33441  Biso   1.000  C 
  H68      1.0000 0.95572  0.44009  0.32758  Biso   1.000  H 
  C69      1.0000 0.94944  0.58671  0.16784  Biso   1.000  C 
  H69      1.0000 0.95652  0.55718  0.11493  Biso   1.000  H 
  C70      1.0000 0.97661  0.60999  0.28435  Biso   1.000  C 
  H70      1.0000 0.01885  0.60667  0.33124  Biso   1.000  H 
  C71      1.0000 0.66526  0.15677  0.87863  Biso   1.000  C 
  H71      1.0000 0.69798  0.17596  0.82748  Biso   1.000  H 
  C72      1.0000 0.26638  0.43247  0.03867  Biso   1.000  C 
  H72      1.0000 0.30727  0.44681  0.98820  Biso   1.000  H 
  N41      1.0000 0.75708  0.15832  0.13499  Biso   1.000  N 
  N42      1.0000 0.88957  0.12378  0.17603  Biso   1.000  N 
  N43      1.0000 0.57865  0.13011  0.88314  Biso   1.000  N 
  N44      1.0000 0.56980  0.04605  0.14782  Biso   1.000  N 
  N45      1.0000 0.57447  0.26362  0.12995  Biso   1.000  N 
  N46      1.0000 0.21234  0.35836  0.04215  Biso   1.000  N 
  N47      1.0000 0.08008  0.39342  0.28721  Biso   1.000  N 
  N48      1.0000 0.00818  0.57575  0.22003  Biso   1.000  N 
  Zn11     1.0000 0.63030  0.14981  0.10470  Biso   1.000  Zn
  Zn12     1.0000 0.11735  0.49885  0.22583  Biso   1.000  Zn
  C73      1.0000 0.34849  0.20333  0.89922  Biso   1.000  C 
  H73      1.0000 0.39135  0.23033  0.93894  Biso   1.000  H 
  C74      1.0000 0.22809  0.18514  0.83172  Biso   1.000  C 
  H74      1.0000 0.16198  0.19354  0.81921  Biso   1.000  H 
  C75      1.0000 0.29383  0.13451  0.80373  Biso   1.000  C 
  H75      1.0000 0.29582  0.08592  0.75923  Biso   1.000  H 
  C76      1.0000 0.97104  0.30183  0.94241  Biso   1.000  C 
  H76      1.0000 0.94324  0.23573  0.95492  Biso   1.000  H 
  C77      1.0000 0.16356  0.04365  0.09289  Biso   1.000  C 
  H77      1.0000 0.19260  0.97921  0.11198  Biso   1.000  H 
  C78      1.0000 0.06620  0.13995  0.06016  Biso   1.000  C 
  H78      1.0000 0.00892  0.18094  0.05741  Biso   1.000  H 
  C79      1.0000 0.55768  0.11428  0.95234  Biso   1.000  C 
  H79      1.0000 0.49097  0.09655  0.97349  Biso   1.000  H 
  C80      1.0000 0.50223  0.28656  0.61312  Biso   1.000  C 
  H80      1.0000 0.48058  0.31122  0.56229  Biso   1.000  H 
  C81      1.0000 0.49280  0.00427  0.67733  Biso   1.000  C 
  H81      1.0000 0.45732  0.05674  0.64674  Biso   1.000  H 
  C82      1.0000 0.54978  0.94197  0.77286  Biso   1.000  C 
  H82      1.0000 0.56236  0.93563  0.83147  Biso   1.000  H 
  C83      1.0000 0.24047  0.49074  0.09088  Biso   1.000  C 
  H83      1.0000 0.26123  0.55434  0.11015  Biso   1.000  H 
  C84      1.0000 0.69732  0.15445  0.95144  Biso   1.000  C 
  H84      1.0000 0.75940  0.17570  0.97486  Biso   1.000  H 
  N49      1.0000 0.26390  0.22911  0.89059  Biso   1.000  N 
  N50      1.0000 0.36919  0.14391  0.84702  Biso   1.000  N 
  N51      1.0000 0.17444  0.45364  0.12991  Biso   1.000  N 
  N52      1.0000 0.06012  0.31768  0.93005  Biso   1.000  N 
  N53      1.0000 0.07802  0.06947  0.10305  Biso   1.000  N 
  N54      1.0000 0.62906  0.12754  0.99607  Biso   1.000  N 
  N55      1.0000 0.58905  0.26192  0.62589  Biso   1.000  N 
  N56      1.0000 0.50907  0.01695  0.75114  Biso   1.000  N 
  Zn13     1.0000 0.17677  0.27155  0.96790  Biso   1.000  Zn
  Zn14     1.0000 0.49720  0.13354  0.80192  Biso   1.000  Zn
  C85      1.0000 0.36211  0.85040  0.48075  Biso   1.000  C 
  H85      1.0000 0.36182  0.79012  0.51269  Biso   1.000  H 
  C86      1.0000 0.32663  0.96786  0.42238  Biso   1.000  C 
  H86      1.0000 0.29272  0.01777  0.39126  Biso   1.000  H 
  C87      1.0000 0.41308  0.97637  0.44757  Biso   1.000  C 
  H87      1.0000 0.46400  0.02662  0.44342  Biso   1.000  H 
  C88      1.0000 0.27388  0.58586  0.32006  Biso   1.000  C 
  H88      1.0000 0.23239  0.64458  0.33239  Biso   1.000  H 
  C89      1.0000 0.18081  0.76976  0.25192  Biso   1.000  C 
  H89      1.0000 0.11309  0.74594  0.25503  Biso   1.000  H 
  C90      1.0000 0.31084  0.81715  0.27960  Biso   1.000  C 
  H90      1.0000 0.36468  0.83633  0.31080  Biso   1.000  H 
  C91      1.0000 0.01625  0.79527  0.47613  Biso   1.000  C 
  H91      1.0000 0.98483  0.85145  0.44923  Biso   1.000  H 
  C92      1.0000 0.86167  0.94038  0.25348  Biso   1.000  C 
  H92      1.0000 0.86357  0.98787  0.29406  Biso   1.000  H 
  C93      1.0000 0.11085  0.98194  0.29239  Biso   1.000  C 
  H93      1.0000 0.14120  0.94159  0.24831  Biso   1.000  H 
  C94      1.0000 0.04040  0.08700  0.34815  Biso   1.000  C 
  H94      1.0000 0.98848  0.13375  0.35476  Biso   1.000  H 
  C95      1.0000 0.67327  0.08687  0.43152  Biso   1.000  C 
  H95      1.0000 0.70196  0.12273  0.38682  Biso   1.000  H 
  C96      1.0000 0.11705  0.69639  0.48317  Biso   1.000  C 
  H96      1.0000 0.17547  0.65762  0.47319  Biso   1.000  H 
  N57      1.0000 0.29767  0.88747  0.44028  Biso   1.000  N 
  N58      1.0000 0.43471  0.90260  0.48182  Biso   1.000  N 
  N59      1.0000 0.65028  0.12594  0.49540  Biso   1.000  N 
  N60      1.0000 0.23282  0.52701  0.27225  Biso   1.000  N 
  N61      1.0000 0.22983  0.80357  0.30788  Biso   1.000  N 
  N62      1.0000 0.09937  0.77597  0.45377  Biso   1.000  N 
  N63      1.0000 0.92177  0.94149  0.19707  Biso   1.000  N 
  N64      1.0000 0.06245  0.05283  0.27793  Biso   1.000  N 
  Zn15     1.0000 0.18318  0.85480  0.39991  Biso   1.000  Zn
  Zn16     1.0000 0.99623  0.05390  0.18416  Biso   1.000  Zn
