data_image0
_cell_length_a       15.4231
_cell_length_b       15.4042
_cell_length_c       18.4379
_cell_angle_alpha    90
_cell_angle_beta     90
_cell_angle_gamma    90

_symmetry_space_group_name_H-M    "P 1"
_symmetry_int_tables_number       1

loop_
  _symmetry_equiv_pos_as_xyz
  'x, y, z'

loop_
  _atom_site_label
  _atom_site_occupancy
  _atom_site_fract_x
  _atom_site_fract_y
  _atom_site_fract_z
  _atom_site_thermal_displace_type
  _atom_site_B_iso_or_equiv
  _atom_site_type_symbol
  C1       1.0000 0.36366  0.39514  0.37637  Biso   1.000  C 
  H1       1.0000 0.36833  0.45671  0.40703  Biso   1.000  H 
  C2       1.0000 0.40967  0.27219  0.32914  Biso   1.000  C 
  H2       1.0000 0.44961  0.22311  0.30263  Biso   1.000  H 
  C3       1.0000 0.32170  0.26651  0.33679  Biso   1.000  C 
  H3       1.0000 0.27707  0.21487  0.31924  Biso   1.000  H 
  C4       1.0000 0.00940  0.26424  0.42514  Biso   1.000  C 
  H4       1.0000 0.98836  0.25246  0.47990  Biso   1.000  H 
  C5       1.0000 0.20077  0.61877  0.52121  Biso   1.000  C 
  H5       1.0000 0.21353  0.67137  0.55805  Biso   1.000  H 
  C6       1.0000 0.16947  0.54853  0.42373  Biso   1.000  C 
  H6       1.0000 0.14996  0.52387  0.37039  Biso   1.000  H 
  C7       1.0000 0.77785  0.04731  0.48072  Biso   1.000  C 
  H7       1.0000 0.78718  0.01020  0.53112  Biso   1.000  H 
  C8       1.0000 0.51837  0.37272  0.16859  Biso   1.000  C 
  H8       1.0000 0.47105  0.43020  0.16844  Biso   1.000  H 
  C9       1.0000 0.53986  0.54905  0.43466  Biso   1.000  C 
  H9       1.0000 0.53616  0.49148  0.47157  Biso   1.000  H 
  C10      1.0000 0.54112  0.61701  0.32905  Biso   1.000  C 
  H10      1.0000 0.54843  0.62705  0.27376  Biso   1.000  H 
  C11      1.0000 0.26495  0.13212  0.56808  Biso   1.000  C 
  H11      1.0000 0.29910  0.07024  0.57956  Biso   1.000  H 
  C12      1.0000 0.78587  0.08852  0.36867  Biso   1.000  C 
  H12      1.0000 0.79595  0.08787  0.30790  Biso   1.000  H 
  N1       1.0000 0.43674  0.35631  0.35068  Biso   1.000  N 
  N2       1.0000 0.29387  0.34512  0.37303  Biso   1.000  N 
  N3       1.0000 0.19319  0.15747  0.60635  Biso   1.000  N 
  N4       1.0000 0.09241  0.29648  0.40512  Biso   1.000  N 
  N5       1.0000 0.18374  0.63046  0.44622  Biso   1.000  N 
  N6       1.0000 0.80585  0.02100  0.41302  Biso   1.000  N 
  N7       1.0000 0.56042  0.34807  0.23181  Biso   1.000  N 
  N8       1.0000 0.53942  0.53638  0.36264  Biso   1.000  N 
  Zn1      1.0000 0.19661  0.36094  0.44677  Biso   1.000  Zn
  Zn2      1.0000 0.54611  0.41209  0.32992  Biso   1.000  Zn
  C13      1.0000 0.17147  0.69842  0.82187  Biso   1.000  C 
  H13      1.0000 0.19724  0.64048  0.79578  Biso   1.000  H 
  C14      1.0000 0.17520  0.82743  0.87028  Biso   1.000  C 
  H14      1.0000 0.20022  0.89340  0.88182  Biso   1.000  H 
  C15      1.0000 0.09403  0.79330  0.88451  Biso   1.000  C 
  H15      1.0000 0.03195  0.82234  0.89936  Biso   1.000  H 
  C16      1.0000 0.31094  0.96789  0.74236  Biso   1.000  C 
  H16      1.0000 0.24907  0.95284  0.72335  Biso   1.000  H 
  C17      1.0000 0.47735  0.61373  0.66844  Biso   1.000  C 
  H17      1.0000 0.50203  0.55658  0.64975  Biso   1.000  H 
  C18      1.0000 0.45809  0.75331  0.67799  Biso   1.000  C 
  H18      1.0000 0.46883  0.82133  0.66745  Biso   1.000  H 
  C19      1.0000 0.91836  0.63757  0.01581  Biso   1.000  C 
  H19      1.0000 0.97513  0.62165  0.04768  Biso   1.000  H 
  C20      1.0000 0.93935  0.59273  0.70548  Biso   1.000  C 
  H20      1.0000 0.98217  0.53247  0.71006  Biso   1.000  H 
  C21      1.0000 0.10137  0.46834  0.86770  Biso   1.000  C 
  H21      1.0000 0.16048  0.51060  0.86492  Biso   1.000  H 
  C22      1.0000 0.96391  0.43695  0.87527  Biso   1.000  C 
  H22      1.0000 0.89660  0.45192  0.88477  Biso   1.000  H 
  C23      1.0000 0.50131  0.79366  0.91517  Biso   1.000  C 
  H23      1.0000 0.54668  0.79901  0.86654  Biso   1.000  H 
  C24      1.0000 0.83535  0.69398  0.93206  Biso   1.000  C 
  H24      1.0000 0.80795  0.71762  0.88134  Biso   1.000  H 
  N9       1.0000 0.22748  0.76543  0.83598  Biso   1.000  N 
  N10      1.0000 0.09399  0.70944  0.85496  Biso   1.000  N 
  N11      1.0000 0.41718  0.77026  0.90736  Biso   1.000  N 
  N12      1.0000 0.35748  0.91193  0.78735  Biso   1.000  N 
  N13      1.0000 0.49309  0.69256  0.63382  Biso   1.000  N 
  N14      1.0000 0.91921  0.66926  0.94552  Biso   1.000  N 
  N15      1.0000 0.93110  0.64235  0.77039  Biso   1.000  N 
  N16      1.0000 0.02350  0.50391  0.86688  Biso   1.000  N 
  Zn3      1.0000 0.34814  0.78214  0.81125  Biso   1.000  Zn
  Zn4      1.0000 0.99350  0.63116  0.85784  Biso   1.000  Zn
  C25      1.0000 0.62374  0.71456  0.16774  Biso   1.000  C 
  H25      1.0000 0.64558  0.77807  0.19003  Biso   1.000  H 
  C26      1.0000 0.61666  0.58000  0.12740  Biso   1.000  C 
  H26      1.0000 0.63989  0.51548  0.11075  Biso   1.000  H 
  C27      1.0000 0.53190  0.61383  0.12890  Biso   1.000  C 
  H27      1.0000 0.46945  0.58424  0.10839  Biso   1.000  H 
  C28      1.0000 0.77746  0.47625  0.22590  Biso   1.000  C 
  H28      1.0000 0.71376  0.49683  0.23982  Biso   1.000  H 
  C29      1.0000 0.91775  0.84735  0.24845  Biso   1.000  C 
  H29      1.0000 0.97054  0.89642  0.25593  Biso   1.000  H 
  C30      1.0000 0.80024  0.77190  0.26645  Biso   1.000  C 
  H30      1.0000 0.74094  0.74109  0.29354  Biso   1.000  H 
  C31      1.0000 0.38834  0.77136  0.97819  Biso   1.000  C 
  H31      1.0000 0.31781  0.76199  0.99411  Biso   1.000  H 
  C32      1.0000 0.22993  0.75851  0.16921  Biso   1.000  C 
  H32      1.0000 0.19967  0.75494  0.11348  Biso   1.000  H 
  C33      1.0000 0.52368  0.96770  0.13134  Biso   1.000  C 
  H33      1.0000 0.52494  0.96593  0.07170  Biso   1.000  H 
  C34      1.0000 0.51300  0.92486  0.24654  Biso   1.000  C 
  H34      1.0000 0.48970  0.88409  0.29358  Biso   1.000  H 
  C35      1.0000 0.78578  0.67848  0.99427  Biso   1.000  C 
  H35      1.0000 0.71606  0.68889  0.00316  Biso   1.000  H 
  C36      1.0000 0.52352  0.80625  0.98846  Biso   1.000  C 
  H36      1.0000 0.58803  0.82434  0.01004  Biso   1.000  H 
  N17      1.0000 0.67426  0.64503  0.15381  Biso   1.000  N 
  N18      1.0000 0.53860  0.69629  0.15457  Biso   1.000  N 
  N19      1.0000 0.84181  0.64579  0.04656  Biso   1.000  N 
  N20      1.0000 0.83014  0.51822  0.17392  Biso   1.000  N 
  N21      1.0000 0.84856  0.84102  0.29282  Biso   1.000  N 
  N22      1.0000 0.44853  0.79033  0.03096  Biso   1.000  N 
  N23      1.0000 0.31623  0.76484  0.18723  Biso   1.000  N 
  N24      1.0000 0.49247  0.90167  0.17613  Biso   1.000  N 
  Zn5      1.0000 0.80257  0.63587  0.15040  Biso   1.000  Zn
  Zn6      1.0000 0.43667  0.78475  0.14121  Biso   1.000  Zn
  C37      1.0000 0.90781  0.17978  0.60249  Biso   1.000  C 
  H37      1.0000 0.89944  0.12854  0.56153  Biso   1.000  H 
  C38      1.0000 0.87589  0.28989  0.67225  Biso   1.000  C 
  H38      1.0000 0.83840  0.34124  0.69662  Biso   1.000  H 
  C39      1.0000 0.95339  0.25454  0.69710  Biso   1.000  C 
  H39      1.0000 0.99345  0.28706  0.73846  Biso   1.000  H 
  C40      1.0000 0.75757  0.38938  0.47167  Biso   1.000  C 
  H40      1.0000 0.81443  0.40713  0.50000  Biso   1.000  H 
  C41      1.0000 0.55261  0.25451  0.61867  Biso   1.000  C 
  H41      1.0000 0.53902  0.30000  0.57174  Biso   1.000  H 
  C42      1.0000 0.64132  0.18251  0.69046  Biso   1.000  C 
  H42      1.0000 0.69042  0.14029  0.71393  Biso   1.000  H 
  C43      1.0000 0.17004  0.23528  0.57412  Biso   1.000  C 
  H43      1.0000 0.11640  0.27684  0.59611  Biso   1.000  H 
  C44      1.0000 0.09304  0.04421  0.82916  Biso   1.000  C 
  H44      1.0000 0.08225  0.97523  0.81517  Biso   1.000  H 
  C45      1.0000 0.96537  0.96791  0.64631  Biso   1.000  C 
  H45      1.0000 0.91826  0.00853  0.67604  Biso   1.000  H 
  C46      1.0000 0.07699  0.91117  0.58929  Biso   1.000  C 
  H46      1.0000 0.13987  0.91245  0.56298  Biso   1.000  H 
  C47      1.0000 0.75146  0.15575  0.40763  Biso   1.000  C 
  H47      1.0000 0.73178  0.21655  0.39039  Biso   1.000  H 
  C48      1.0000 0.29084  0.19399  0.51704  Biso   1.000  C 
  H48      1.0000 0.34289  0.18877  0.47377  Biso   1.000  H 
  N25      1.0000 0.84698  0.24218  0.61393  Biso   1.000  N 
  N26      1.0000 0.97775  0.18728  0.64886  Biso   1.000  N 
  N27      1.0000 0.74684  0.13052  0.47885  Biso   1.000  N 
  N28      1.0000 0.70529  0.32096  0.49035  Biso   1.000  N 
  N29      1.0000 0.63865  0.22034  0.62429  Biso   1.000  N 
  N30      1.0000 0.22786  0.26218  0.52076  Biso   1.000  N 
  N31      1.0000 0.10964  0.10215  0.76945  Biso   1.000  N 
  N32      1.0000 0.04714  0.98706  0.62531  Biso   1.000  N 
  Zn7      1.0000 0.73906  0.22990  0.55497  Biso   1.000  Zn
  Zn8      1.0000 0.08768  0.10392  0.66584  Biso   1.000  Zn
  C49      1.0000 0.67876  0.86540  0.75444  Biso   1.000  C 
  H49      1.0000 0.69133  0.80761  0.79268  Biso   1.000  H 
  C50      1.0000 0.68092  0.95026  0.65474  Biso   1.000  C 
  H50      1.0000 0.70378  0.97799  0.60447  Biso   1.000  H 
  C51      1.0000 0.60796  0.96842  0.69651  Biso   1.000  C 
  H51      1.0000 0.56055  0.02072  0.69338  Biso   1.000  H 
  C52      1.0000 0.01062  0.84916  0.58989  Biso   1.000  C 
  H52      1.0000 0.01221  0.78050  0.56600  Biso   1.000  H 
  C53      1.0000 0.89794  0.64033  0.65187  Biso   1.000  C 
  H53      1.0000 0.88402  0.62179  0.59772  Biso   1.000  H 
  C54      1.0000 0.88621  0.71460  0.75186  Biso   1.000  C 
  H54      1.0000 0.86951  0.77269  0.78981  Biso   1.000  H 
  C55      1.0000 0.36543  0.75137  0.46612  Biso   1.000  C 
  H55      1.0000 0.36881  0.68657  0.44349  Biso   1.000  H 
  C56      1.0000 0.42757  0.62652  0.72851  Biso   1.000  C 
  H56      1.0000 0.40158  0.57912  0.76613  Biso   1.000  H 
  C57      1.0000 0.64059  0.32352  0.44155  Biso   1.000  C 
  H57      1.0000 0.58135  0.27873  0.43719  Biso   1.000  H 
  C58      1.0000 0.72224  0.42967  0.41034  Biso   1.000  C 
  H58      1.0000 0.73396  0.49208  0.38844  Biso   1.000  H 
  C59      1.0000 0.72886  0.72746  0.54351  Biso   1.000  C 
  H59      1.0000 0.71730  0.67290  0.57780  Biso   1.000  H 
  C60      1.0000 0.41092  0.87531  0.50230  Biso   1.000  C 
  H60      1.0000 0.46252  0.92162  0.52103  Biso   1.000  H 
  N33      1.0000 0.72687  0.88490  0.69251  Biso   1.000  N 
  N34      1.0000 0.60777  0.91941  0.75874  Biso   1.000  N 
  N35      1.0000 0.65848  0.78264  0.52217  Biso   1.000  N 
  N36      1.0000 0.94145  0.88442  0.62889  Biso   1.000  N 
  N37      1.0000 0.86321  0.71487  0.68125  Biso   1.000  N 
  N38      1.0000 0.43940  0.79251  0.48744  Biso   1.000  N 
  N39      1.0000 0.41641  0.71652  0.73579  Biso   1.000  N 
  N40      1.0000 0.64580  0.38725  0.39238  Biso   1.000  N 
  Zn9      1.0000 0.82826  0.82573  0.64244  Biso   1.000  Zn
  Zn10     1.0000 0.54127  0.71937  0.53518  Biso   1.000  Zn
  C61      1.0000 0.80147  0.20775  0.15717  Biso   1.000  C 
  H61      1.0000 0.77215  0.27239  0.14904  Biso   1.000  H 
  C62      1.0000 0.80631  0.06817  0.17734  Biso   1.000  C 
  H62      1.0000 0.78189  0.99779  0.17801  Biso   1.000  H 
  C63      1.0000 0.88348  0.10538  0.19983  Biso   1.000  C 
  H63      1.0000 0.93806  0.07168  0.22395  Biso   1.000  H 
  C64      1.0000 0.55980  0.00597  0.24440  Biso   1.000  C 
  H64      1.0000 0.58544  0.04484  0.28778  Biso   1.000  H 
  C65      1.0000 0.53576  0.30493  0.11973  Biso   1.000  C 
  H65      1.0000 0.50301  0.29227  0.06772  Biso   1.000  H 
  C66      1.0000 0.60234  0.27420  0.21826  Biso   1.000  C 
  H66      1.0000 0.64886  0.24255  0.25560  Biso   1.000  H 
  C67      1.0000 0.07539  0.30312  0.06328  Biso   1.000  C 
  H67      1.0000 0.02107  0.33939  0.03737  Biso   1.000  H 
  C68      1.0000 0.20400  0.53089  0.53907  Biso   1.000  C 
  H68      1.0000 0.21792  0.49229  0.58904  Biso   1.000  H 
  C69      1.0000 0.89955  0.46650  0.16446  Biso   1.000  C 
  H69      1.0000 0.94762  0.48962  0.12751  Biso   1.000  H 
  C70      1.0000 0.82055  0.40130  0.24425  Biso   1.000  C 
  H70      1.0000 0.80185  0.35695  0.28761  Biso   1.000  H 
  C71      1.0000 0.67525  0.06557  0.90306  Biso   1.000  C 
  H71      1.0000 0.70418  0.03571  0.85576  Biso   1.000  H 
  C72      1.0000 0.19975  0.24203  0.08403  Biso   1.000  C 
  H72      1.0000 0.26029  0.21140  0.06924  Biso   1.000  H 
  N41      1.0000 0.75336  0.13299  0.15402  Biso   1.000  N 
  N42      1.0000 0.88556  0.19291  0.18121  Biso   1.000  N 
  N43      1.0000 0.58966  0.10297  0.89833  Biso   1.000  N 
  N44      1.0000 0.56090  0.03205  0.17230  Biso   1.000  N 
  N45      1.0000 0.58874  0.24576  0.15025  Biso   1.000  N 
  N46      1.0000 0.15029  0.28348  0.02779  Biso   1.000  N 
  N47      1.0000 0.19366  0.48390  0.47426  Biso   1.000  N 
  N48      1.0000 0.89859  0.39429  0.20932  Biso   1.000  N 
  Zn11     1.0000 0.63033  0.12742  0.11986  Biso   1.000  Zn
  Zn12     1.0000 0.97140  0.28632  0.19989  Biso   1.000  Zn
  C73      1.0000 0.34843  0.21360  0.88163  Biso   1.000  C 
  H73      1.0000 0.32910  0.14825  0.89939  Biso   1.000  H 
  C74      1.0000 0.35449  0.35515  0.87536  Biso   1.000  C 
  H74      1.0000 0.33331  0.42129  0.87382  Biso   1.000  H 
  C75      1.0000 0.43095  0.32181  0.84960  Biso   1.000  C 
  H75      1.0000 0.49009  0.35661  0.82962  Biso   1.000  H 
  C76      1.0000 0.00950  0.35914  0.87548  Biso   1.000  C 
  H76      1.0000 0.98770  0.29452  0.88449  Biso   1.000  H 
  C77      1.0000 0.11149  0.09306  0.89223  Biso   1.000  C 
  H77      1.0000 0.11056  0.07606  0.94939  Biso   1.000  H 
  C78      1.0000 0.13366  0.17774  0.79952  Biso   1.000  C 
  H78      1.0000 0.15031  0.23349  0.76844  Biso   1.000  H 
  C79      1.0000 0.57210  0.13274  0.96466  Biso   1.000  C 
  H79      1.0000 0.51052  0.16360  0.97504  Biso   1.000  H 
  C80      1.0000 0.51127  0.24665  0.68621  Biso   1.000  C 
  H80      1.0000 0.44691  0.27259  0.70384  Biso   1.000  H 
  C81      1.0000 0.42593  0.96203  0.81143  Biso   1.000  C 
  H81      1.0000 0.47100  0.93737  0.85061  Biso   1.000  H 
  C82      1.0000 0.35273  0.04431  0.73964  Biso   1.000  C 
  H82      1.0000 0.32914  0.11022  0.72208  Biso   1.000  H 
  C83      1.0000 0.15599  0.23742  0.14780  Biso   1.000  C 
  H83      1.0000 0.16452  0.20526  0.19785  Biso   1.000  H 
  C84      1.0000 0.70040  0.07246  0.97518  Biso   1.000  C 
  H84      1.0000 0.75440  0.05029  0.00772  Biso   1.000  H 
  N49      1.0000 0.30071  0.28795  0.89763  Biso   1.000  N 
  N50      1.0000 0.43019  0.23105  0.85461  Biso   1.000  N 
  N51      1.0000 0.07507  0.27938  0.13406  Biso   1.000  N 
  N52      1.0000 0.09826  0.38160  0.86980  Biso   1.000  N 
  N53      1.0000 0.13167  0.17770  0.87329  Biso   1.000  N 
  N54      1.0000 0.63219  0.11273  0.01465  Biso   1.000  N 
  N55      1.0000 0.56299  0.19489  0.72893  Biso   1.000  N 
  N56      1.0000 0.42699  0.04370  0.78534  Biso   1.000  N 
  Zn13     1.0000 0.17709  0.29282  0.92285  Biso   1.000  Zn
  Zn14     1.0000 0.51136  0.13946  0.81278  Biso   1.000  Zn
  C85      1.0000 0.02758  0.82012  0.41059  Biso   1.000  C 
  H85      1.0000 0.99764  0.75493  0.41690  Biso   1.000  H 
  C86      1.0000 0.11654  0.92448  0.38613  Biso   1.000  C 
  H86      1.0000 0.17565  0.95457  0.36100  Biso   1.000  H 
  C87      1.0000 0.03451  0.96262  0.39748  Biso   1.000  C 
  H87      1.0000 0.01624  0.03087  0.37967  Biso   1.000  H 
  C88      1.0000 0.54783  0.67891  0.38524  Biso   1.000  C 
  H88      1.0000 0.54068  0.74760  0.38038  Biso   1.000  H 
  C89      1.0000 0.18185  0.75173  0.23463  Biso   1.000  C 
  H89      1.0000 0.10935  0.75315  0.24616  Biso   1.000  H 
  C90      1.0000 0.31900  0.76118  0.25954  Biso   1.000  C 
  H90      1.0000 0.37730  0.76050  0.29323  Biso   1.000  H 
  C91      1.0000 0.69063  0.84108  0.47545  Biso   1.000  C 
  H91      1.0000 0.65340  0.89691  0.45311  Biso   1.000  H 
  C92      1.0000 0.91661  0.78204  0.19601  Biso   1.000  C 
  H92      1.0000 0.95589  0.78236  0.14882  Biso   1.000  H 
  C93      1.0000 0.09483  0.30271  0.33326  Biso   1.000  C 
  H93      1.0000 0.14526  0.33851  0.30383  Biso   1.000  H 
  C94      1.0000 0.96828  0.25026  0.36042  Biso   1.000  C 
  H94      1.0000 0.90745  0.22235  0.34640  Biso   1.000  H 
  C95      1.0000 0.32433  0.88302  0.47969  Biso   1.000  C 
  H95      1.0000 0.28357  0.94264  0.48528  Biso   1.000  H 
  C96      1.0000 0.80043  0.75344  0.50674  Biso   1.000  C 
  H96      1.0000 0.86851  0.72957  0.49495  Biso   1.000  H 
  N57      1.0000 0.10996  0.83597  0.39390  Biso   1.000  N 
  N58      1.0000 0.97880  0.89379  0.41408  Biso   1.000  N 
  N59      1.0000 0.29573  0.80055  0.45788  Biso   1.000  N 
  N60      1.0000 0.54229  0.63567  0.45419  Biso   1.000  N 
  N61      1.0000 0.24002  0.75172  0.28894  Biso   1.000  N 
  N62      1.0000 0.77623  0.83007  0.46745  Biso   1.000  N 
  N63      1.0000 0.83919  0.73358  0.20665  Biso   1.000  N 
  N64      1.0000 0.01767  0.27561  0.30042  Biso   1.000  N 
  Zn15     1.0000 0.20970  0.75073  0.39891  Biso   1.000  Zn
  Zn16     1.0000 0.85229  0.89989  0.40179  Biso   1.000  Zn
