data_image0
_cell_length_a       15.4231
_cell_length_b       15.4042
_cell_length_c       18.4379
_cell_angle_alpha    90
_cell_angle_beta     90
_cell_angle_gamma    90

_symmetry_space_group_name_H-M    "P 1"
_symmetry_int_tables_number       1

loop_
  _symmetry_equiv_pos_as_xyz
  'x, y, z'

loop_
  _atom_site_label
  _atom_site_occupancy
  _atom_site_fract_x
  _atom_site_fract_y
  _atom_site_fract_z
  _atom_site_thermal_displace_type
  _atom_site_B_iso_or_equiv
  _atom_site_type_symbol
  C1       1.0000 0.27536  0.62561  0.49015  Biso   1.000  C 
  H1       1.0000 0.30582  0.62729  0.43697  Biso   1.000  H 
  C2       1.0000 0.25039  0.63811  0.60705  Biso   1.000  C 
  H2       1.0000 0.26773  0.66252  0.65946  Biso   1.000  H 
  C3       1.0000 0.17177  0.61924  0.57285  Biso   1.000  C 
  H3       1.0000 0.10764  0.61365  0.59307  Biso   1.000  H 
  C4       1.0000 0.09474  0.87614  0.10831  Biso   1.000  C 
  H4       1.0000 0.04097  0.84613  0.13885  Biso   1.000  H 
  C5       1.0000 0.67510  0.87832  0.40071  Biso   1.000  C 
  H5       1.0000 0.65010  0.92424  0.36232  Biso   1.000  H 
  C6       1.0000 0.72306  0.75373  0.44718  Biso   1.000  C 
  H6       1.0000 0.73972  0.68893  0.45791  Biso   1.000  H 
  C7       1.0000 0.69690  0.03163  0.76179  Biso   1.000  C 
  H7       1.0000 0.64173  0.06841  0.73699  Biso   1.000  H 
  C8       1.0000 0.34349  0.22910  0.06277  Biso   1.000  C 
  H8       1.0000 0.29204  0.18352  0.06500  Biso   1.000  H 
  C9       1.0000 0.97918  0.68847  0.46501  Biso   1.000  C 
  H9       1.0000 0.01629  0.74949  0.45588  Biso   1.000  H 
  C10      1.0000 0.87230  0.60215  0.49282  Biso   1.000  C 
  H10      1.0000 0.81284  0.58094  0.51568  Biso   1.000  H 
  C11      1.0000 0.26554  0.29247  0.61614  Biso   1.000  C 
  H11      1.0000 0.20328  0.27861  0.58618  Biso   1.000  H 
  C12      1.0000 0.76748  0.93528  0.82123  Biso   1.000  C 
  H12      1.0000 0.77548  0.87424  0.85537  Biso   1.000  H 
  N1       1.0000 0.31596  0.64705  0.55467  Biso   1.000  N 
  N2       1.0000 0.19131  0.60223  0.49995  Biso   1.000  N 
  N3       1.0000 0.26797  0.29142  0.69306  Biso   1.000  N 
  N4       1.0000 0.18175  0.87938  0.12829  Biso   1.000  N 
  N5       1.0000 0.68301  0.78850  0.38764  Biso   1.000  N 
  N6       1.0000 0.68324  0.96051  0.80230  Biso   1.000  N 
  N7       1.0000 0.42463  0.22237  0.08890  Biso   1.000  N 
  N8       1.0000 0.90025  0.68783  0.50274  Biso   1.000  N 
  Zn1      1.0000 0.53147  0.34845  0.65168  Biso   1.000  Zn
  Zn2      1.0000 0.11018  0.20225  0.31721  Biso   1.000  Zn
  C13      1.0000 0.13882  0.83690  0.85820  Biso   1.000  C 
  H13      1.0000 0.14214  0.80845  0.91321  Biso   1.000  H 
  C14      1.0000 0.17626  0.91925  0.76788  Biso   1.000  C 
  H14      1.0000 0.20133  0.97905  0.73955  Biso   1.000  H 
  C15      1.0000 0.14923  0.84223  0.73977  Biso   1.000  C 
  H15      1.0000 0.13691  0.82338  0.68443  Biso   1.000  H 
  C16      1.0000 0.18909  0.59645  0.24213  Biso   1.000  C 
  H16      1.0000 0.18373  0.52520  0.22355  Biso   1.000  H 
  C17      1.0000 0.48513  0.03108  0.90351  Biso   1.000  C 
  H17      1.0000 0.54920  0.06847  0.90650  Biso   1.000  H 
  C18      1.0000 0.40433  0.91366  0.89650  Biso   1.000  C 
  H18      1.0000 0.38019  0.84438  0.88570  Biso   1.000  H 
  C19      1.0000 0.89363  0.70737  0.91606  Biso   1.000  C 
  H19      1.0000 0.85425  0.74287  0.87462  Biso   1.000  H 
  C20      1.0000 0.85435  0.62416  0.75015  Biso   1.000  C 
  H20      1.0000 0.84924  0.56827  0.78854  Biso   1.000  H 
  C21      1.0000 0.09038  0.49076  0.78414  Biso   1.000  C 
  H21      1.0000 0.02187  0.46961  0.77181  Biso   1.000  H 
  C22      1.0000 0.19558  0.57298  0.82891  Biso   1.000  C 
  H22      1.0000 0.23170  0.63107  0.84717  Biso   1.000  H 
  C23      1.0000 0.59438  0.69724  0.80977  Biso   1.000  C 
  H23      1.0000 0.57359  0.68248  0.75617  Biso   1.000  H 
  C24      1.0000 0.99821  0.64149  0.97436  Biso   1.000  C 
  H24      1.0000 0.06709  0.62173  0.98347  Biso   1.000  H 
  N9       1.0000 0.17415  0.91790  0.84372  Biso   1.000  N 
  N10      1.0000 0.11886  0.79166  0.79850  Biso   1.000  N 
  N11      1.0000 0.60041  0.78079  0.83403  Biso   1.000  N 
  N12      1.0000 0.16981  0.62012  0.31445  Biso   1.000  N 
  N13      1.0000 0.48601  0.94504  0.88152  Biso   1.000  N 
  N14      1.0000 0.97774  0.68479  0.90931  Biso   1.000  N 
  N15      1.0000 0.92291  0.68179  0.75281  Biso   1.000  N 
  N16      1.0000 0.10882  0.57855  0.80261  Biso   1.000  N 
  Zn3      1.0000 0.22412  0.99209  0.92676  Biso   1.000  Zn
  Zn4      1.0000 0.03695  0.68566  0.81122  Biso   1.000  Zn
  C25      1.0000 0.74714  0.50831  0.10524  Biso   1.000  C 
  H25      1.0000 0.75735  0.55480  0.14989  Biso   1.000  H 
  C26      1.0000 0.73103  0.39084  0.04227  Biso   1.000  C 
  H26      1.0000 0.72829  0.32166  0.03403  Biso   1.000  H 
  C27      1.0000 0.70818  0.45719  0.99863  Biso   1.000  C 
  H27      1.0000 0.68132  0.46083  0.94343  Biso   1.000  H 
  C28      1.0000 0.94708  0.29459  0.14625  Biso   1.000  C 
  H28      1.0000 0.92564  0.33056  0.09754  Biso   1.000  H 
  C29      1.0000 0.74112  0.81249  0.11826  Biso   1.000  C 
  H29      1.0000 0.78331  0.84240  0.07904  Biso   1.000  H 
  C30      1.0000 0.63980  0.71904  0.15041  Biso   1.000  C 
  H30      1.0000 0.59451  0.66840  0.14739  Biso   1.000  H 
  C31      1.0000 0.63692  0.77248  0.90043  Biso   1.000  C 
  H31      1.0000 0.64198  0.82607  0.94247  Biso   1.000  H 
  C32      1.0000 0.47362  0.78144  0.34115  Biso   1.000  C 
  H32      1.0000 0.47180  0.81915  0.29413  Biso   1.000  H 
  C33      1.0000 0.28305  0.18039  0.24387  Biso   1.000  C 
  H33      1.0000 0.26052  0.15676  0.19363  Biso   1.000  H 
  C34      1.0000 0.29596  0.26717  0.33354  Biso   1.000  C 
  H34      1.0000 0.28054  0.30882  0.37987  Biso   1.000  H 
  C35      1.0000 0.92448  0.64212  0.01969  Biso   1.000  C 
  H35      1.0000 0.91310  0.60096  0.06884  Biso   1.000  H 
  C36      1.0000 0.63272  0.64098  0.86007  Biso   1.000  C 
  H36      1.0000 0.64232  0.56960  0.85419  Biso   1.000  H 
  N17      1.0000 0.75752  0.42261  0.11174  Biso   1.000  N 
  N18      1.0000 0.71730  0.53295  0.03982  Biso   1.000  N 
  N19      1.0000 0.85786  0.68508  0.98246  Biso   1.000  N 
  N20      1.0000 0.89548  0.30545  0.20964  Biso   1.000  N 
  N21      1.0000 0.69555  0.73939  0.09233  Biso   1.000  N 
  N22      1.0000 0.66009  0.69185  0.91743  Biso   1.000  N 
  N23      1.0000 0.52300  0.70601  0.34450  Biso   1.000  N 
  N24      1.0000 0.23478  0.22436  0.29048  Biso   1.000  N 
  Zn5      1.0000 0.78731  0.36667  0.20932  Biso   1.000  Zn
  Zn6      1.0000 0.71974  0.66119  0.00981  Biso   1.000  Zn
  C37      1.0000 0.70289  0.53039  0.28557  Biso   1.000  C 
  H37      1.0000 0.63917  0.50782  0.27781  Biso   1.000  H 
  C38      1.0000 0.84629  0.53339  0.29407  Biso   1.000  C 
  H38      1.0000 0.91614  0.51966  0.29735  Biso   1.000  H 
  C39      1.0000 0.81651  0.61421  0.31338  Biso   1.000  C 
  H39      1.0000 0.85545  0.66482  0.33985  Biso   1.000  H 
  C40      1.0000 0.06057  0.30265  0.45452  Biso   1.000  C 
  H40      1.0000 0.04333  0.24637  0.48741  Biso   1.000  H 
  C41      1.0000 0.63829  0.24039  0.53819  Biso   1.000  C 
  H41      1.0000 0.59094  0.25330  0.49591  Biso   1.000  H 
  C42      1.0000 0.68736  0.24408  0.65100  Biso   1.000  C 
  H42      1.0000 0.69104  0.26402  0.70698  Biso   1.000  H 
  C43      1.0000 0.35054  0.31204  0.70935  Biso   1.000  C 
  H43      1.0000 0.38192  0.32030  0.76380  Biso   1.000  H 
  C44      1.0000 0.29817  0.65571  0.98389  Biso   1.000  C 
  H44      1.0000 0.24289  0.69255  0.00599  Biso   1.000  H 
  C45      1.0000 0.22581  0.16958  0.85749  Biso   1.000  C 
  H45      1.0000 0.28393  0.16387  0.81780  Biso   1.000  H 
  C46      1.0000 0.11275  0.24252  0.90553  Biso   1.000  C 
  H46      1.0000 0.07052  0.30059  0.90888  Biso   1.000  H 
  C47      1.0000 0.82814  0.99241  0.79265  Biso   1.000  C 
  H47      1.0000 0.89745  0.99411  0.80168  Biso   1.000  H 
  C48      1.0000 0.34790  0.30747  0.59101  Biso   1.000  C 
  H48      1.0000 0.37390  0.32257  0.53554  Biso   1.000  H 
  N25      1.0000 0.77830  0.47786  0.27487  Biso   1.000  N 
  N26      1.0000 0.72493  0.60946  0.31116  Biso   1.000  N 
  N27      1.0000 0.78191  0.05396  0.75418  Biso   1.000  N 
  N28      1.0000 0.07493  0.29287  0.38045  Biso   1.000  N 
  N29      1.0000 0.62408  0.27293  0.60568  Biso   1.000  N 
  N30      1.0000 0.40071  0.31615  0.64853  Biso   1.000  N 
  N31      1.0000 0.34932  0.68774  0.92852  Biso   1.000  N 
  N32      1.0000 0.17536  0.24528  0.85198  Biso   1.000  N 
  Zn7      1.0000 0.83549  0.11514  0.67037  Biso   1.000  Zn
  Zn8      1.0000 0.15771  0.31334  0.76397  Biso   1.000  Zn
  C49      1.0000 0.01730  0.20018  0.71112  Biso   1.000  C 
  H49      1.0000 0.04647  0.14863  0.74312  Biso   1.000  H 
  C50      1.0000 0.92300  0.28174  0.65505  Biso   1.000  C 
  H50      1.0000 0.87176  0.30004  0.61734  Biso   1.000  H 
  C51      1.0000 0.00031  0.33054  0.67231  Biso   1.000  C 
  H51      1.0000 0.01911  0.39696  0.65758  Biso   1.000  H 
  C52      1.0000 0.13529  0.17033  0.94511  Biso   1.000  C 
  H52      1.0000 0.10432  0.14430  0.99518  Biso   1.000  H 
  C53      1.0000 0.80349  0.64468  0.68974  Biso   1.000  C 
  H53      1.0000 0.73543  0.61593  0.67406  Biso   1.000  H 
  C54      1.0000 0.90618  0.73995  0.69819  Biso   1.000  C 
  H54      1.0000 0.94752  0.79768  0.68601  Biso   1.000  H 
  C55      1.0000 0.12698  0.01676  0.28366  Biso   1.000  C 
  H55      1.0000 0.09224  0.02514  0.23266  Biso   1.000  H 
  C56      1.0000 0.40375  0.05022  0.93298  Biso   1.000  C 
  H56      1.0000 0.37566  0.11400  0.94728  Biso   1.000  H 
  C57      1.0000 0.08954  0.37588  0.35423  Biso   1.000  C 
  H57      1.0000 0.10615  0.39017  0.29867  Biso   1.000  H 
  C58      1.0000 0.06938  0.39103  0.47183  Biso   1.000  C 
  H58      1.0000 0.06814  0.43257  0.51787  Biso   1.000  H 
  C59      1.0000 0.97531  0.93868  0.54623  Biso   1.000  C 
  H59      1.0000 0.03218  0.90604  0.52143  Biso   1.000  H 
  C60      1.0000 0.20633  0.95665  0.36858  Biso   1.000  C 
  H60      1.0000 0.24029  0.90140  0.39114  Biso   1.000  H 
  N33      1.0000 0.93678  0.19896  0.68097  Biso   1.000  N 
  N34      1.0000 0.05694  0.27817  0.70556  Biso   1.000  N 
  N35      1.0000 0.91085  0.88796  0.57830  Biso   1.000  N 
  N36      1.0000 0.20188  0.12339  0.91334  Biso   1.000  N 
  N37      1.0000 0.83168  0.72432  0.66344  Biso   1.000  N 
  N38      1.0000 0.17282  0.94196  0.29853  Biso   1.000  N 
  N39      1.0000 0.35288  0.97420  0.92651  Biso   1.000  N 
  N40      1.0000 0.09298  0.43516  0.40882  Biso   1.000  N 
  Zn9      1.0000 0.83828  0.78144  0.56553  Biso   1.000  Zn
  Zn10     1.0000 0.23736  0.85635  0.22521  Biso   1.000  Zn
  C61      1.0000 0.61845  0.26196  0.21894  Biso   1.000  C 
  H61      1.0000 0.57751  0.31552  0.22729  Biso   1.000  H 
  C62      1.0000 0.65564  0.12865  0.18877  Biso   1.000  C 
  H62      1.0000 0.65733  0.05961  0.17183  Biso   1.000  H 
  C63      1.0000 0.72858  0.18044  0.20026  Biso   1.000  C 
  H63      1.0000 0.79710  0.16336  0.19956  Biso   1.000  H 
  C64      1.0000 0.37784  0.24548  0.31189  Biso   1.000  C 
  H64      1.0000 0.43781  0.25918  0.33724  Biso   1.000  H 
  C65      1.0000 0.33488  0.31082  0.02739  Biso   1.000  C 
  H65      1.0000 0.27809  0.34515  0.00314  Biso   1.000  H 
  C66      1.0000 0.46385  0.29581  0.07125  Biso   1.000  C 
  H66      1.0000 0.52954  0.31401  0.08699  Biso   1.000  H 
  C67      1.0000 0.48182  0.81148  0.68334  Biso   1.000  C 
  H67      1.0000 0.44764  0.77398  0.72611  Biso   1.000  H 
  C68      1.0000 0.71997  0.89575  0.46596  Biso   1.000  C 
  H68      1.0000 0.72827  0.95437  0.49472  Biso   1.000  H 
  C69      1.0000 0.94221  0.26364  0.26077  Biso   1.000  C 
  H69      1.0000 0.92212  0.27144  0.31831  Biso   1.000  H 
  C70      1.0000 0.02175  0.24755  0.16272  Biso   1.000  C 
  H70      1.0000 0.07904  0.22716  0.12929  Biso   1.000  H 
  C71      1.0000 0.42257  0.87940  0.16200  Biso   1.000  C 
  H71      1.0000 0.42820  0.81339  0.13451  Biso   1.000  H 
  C72      1.0000 0.56541  0.91255  0.63539  Biso   1.000  C 
  H72      1.0000 0.60372  0.97290  0.63319  Biso   1.000  H 
  N41      1.0000 0.58476  0.18078  0.20648  Biso   1.000  N 
  N42      1.0000 0.70723  0.26670  0.21716  Biso   1.000  N 
  N43      1.0000 0.35934  0.90468  0.21428  Biso   1.000  N 
  N44      1.0000 0.37256  0.18796  0.25391  Biso   1.000  N 
  N45      1.0000 0.41583  0.34876  0.03168  Biso   1.000  N 
  N46      1.0000 0.52805  0.88220  0.70018  Biso   1.000  N 
  N47      1.0000 0.74718  0.81752  0.49672  Biso   1.000  N 
  N48      1.0000 0.02126  0.23539  0.23955  Biso   1.000  N 
  Zn11     1.0000 0.46369  0.15302  0.18240  Biso   1.000  Zn
  Zn12     1.0000 0.11617  0.56677  0.41205  Biso   1.000  Zn
  C73      1.0000 0.52390  0.41019  0.81171  Biso   1.000  C 
  H73      1.0000 0.50585  0.47532  0.80054  Biso   1.000  H 
  C74      1.0000 0.54967  0.29714  0.88155  Biso   1.000  C 
  H74      1.0000 0.55711  0.25539  0.92842  Biso   1.000  H 
  C75      1.0000 0.56176  0.27394  0.80913  Biso   1.000  C 
  H75      1.0000 0.57505  0.20645  0.78555  Biso   1.000  H 
  C76      1.0000 0.22299  0.48838  0.82387  Biso   1.000  C 
  H76      1.0000 0.28485  0.45991  0.84050  Biso   1.000  H 
  C77      1.0000 0.32719  0.57402  0.00850  Biso   1.000  C 
  H77      1.0000 0.30350  0.53688  0.05810  Biso   1.000  H 
  C78      1.0000 0.40916  0.62189  0.91937  Biso   1.000  C 
  H78      1.0000 0.46399  0.62290  0.88114  Biso   1.000  H 
  C79      1.0000 0.38069  0.98743  0.22659  Biso   1.000  C 
  H79      1.0000 0.35128  0.02742  0.26937  Biso   1.000  H 
  C80      1.0000 0.70568  0.18065  0.54384  Biso   1.000  C 
  H80      1.0000 0.73488  0.13193  0.50562  Biso   1.000  H 
  C81      1.0000 0.18311  0.70557  0.31655  Biso   1.000  C 
  H81      1.0000 0.17457  0.74461  0.36610  Biso   1.000  H 
  C82      1.0000 0.21417  0.66767  0.20539  Biso   1.000  C 
  H82      1.0000 0.23826  0.67518  0.15096  Biso   1.000  H 
  C83      1.0000 0.53187  0.86086  0.58062  Biso   1.000  C 
  H83      1.0000 0.54522  0.86251  0.52239  Biso   1.000  H 
  C84      1.0000 0.47755  0.94803  0.14952  Biso   1.000  C 
  H84      1.0000 0.53293  0.94298  0.11308  Biso   1.000  H 
  N49      1.0000 0.53114  0.38372  0.88403  Biso   1.000  N 
  N50      1.0000 0.54449  0.34514  0.76441  Biso   1.000  N 
  N51      1.0000 0.47919  0.80096  0.60972  Biso   1.000  N 
  N52      1.0000 0.15418  0.43660  0.79759  Biso   1.000  N 
  N53      1.0000 0.40133  0.55328  0.96874  Biso   1.000  N 
  N54      1.0000 0.44954  0.01918  0.18979  Biso   1.000  N 
  N55      1.0000 0.73999  0.18309  0.61539  Biso   1.000  N 
  N56      1.0000 0.20908  0.73816  0.25067  Biso   1.000  N 
  Zn13     1.0000 0.44823  0.43963  0.95418  Biso   1.000  Zn
  Zn14     1.0000 0.56768  0.89871  0.80275  Biso   1.000  Zn
  C85      1.0000 0.48206  0.51936  0.59960  Biso   1.000  C 
  H85      1.0000 0.41413  0.50338  0.59406  Biso   1.000  H 
  C86      1.0000 0.59824  0.59983  0.58687  Biso   1.000  C 
  H86      1.0000 0.63863  0.65872  0.57999  Biso   1.000  H 
  C87      1.0000 0.62129  0.51928  0.61306  Biso   1.000  C 
  H87      1.0000 0.68376  0.48939  0.62233  Biso   1.000  H 
  C88      1.0000 0.93668  0.55084  0.46117  Biso   1.000  C 
  H88      1.0000 0.93589  0.48498  0.44499  Biso   1.000  H 
  C89      1.0000 0.43679  0.79252  0.40650  Biso   1.000  C 
  H89      1.0000 0.38978  0.84741  0.42115  Biso   1.000  H 
  C90      1.0000 0.51293  0.67576  0.41399  Biso   1.000  C 
  H90      1.0000 0.54742  0.62401  0.43806  Biso   1.000  H 
  C91      1.0000 0.85839  0.94705  0.60955  Biso   1.000  C 
  H91      1.0000 0.79921  0.92732  0.64134  Biso   1.000  H 
  C92      1.0000 0.71870  0.82683  0.19016  Biso   1.000  C 
  H92      1.0000 0.73310  0.88401  0.22061  Biso   1.000  H 
  C93      1.0000 0.22469  0.92151  0.07596  Biso   1.000  C 
  H93      1.0000 0.29398  0.93885  0.08191  Biso   1.000  H 
  C94      1.0000 0.08779  0.91990  0.03972  Biso   1.000  C 
  H94      1.0000 0.03762  0.90338  0.00012  Biso   1.000  H 
  C95      1.0000 0.17585  0.03485  0.39097  Biso   1.000  C 
  H95      1.0000 0.18294  0.06622  0.44371  Biso   1.000  H 
  C96      1.0000 0.95717  0.02464  0.55747  Biso   1.000  C 
  H96      1.0000 0.99367  0.08621  0.55187  Biso   1.000  H 
  N57      1.0000 0.51066  0.60216  0.58570  Biso   1.000  N 
  N58      1.0000 0.54613  0.46940  0.62121  Biso   1.000  N 
  N59      1.0000 0.12178  0.07450  0.34015  Biso   1.000  N 
  N60      1.0000 0.00106  0.61010  0.44141  Biso   1.000  N 
  N61      1.0000 0.46059  0.72742  0.45465  Biso   1.000  N 
  N62      1.0000 0.88371  0.02905  0.60134  Biso   1.000  N 
  N63      1.0000 0.65248  0.76672  0.20895  Biso   1.000  N 
  N64      1.0000 0.17079  0.95020  0.02096  Biso   1.000  N 
  Zn15     1.0000 0.43342  0.69862  0.55240  Biso   1.000  Zn
  Zn16     1.0000 0.64828  0.71471  0.30561  Biso   1.000  Zn
