data_image0
_cell_length_a       15.4231
_cell_length_b       15.4042
_cell_length_c       18.4379
_cell_angle_alpha    90
_cell_angle_beta     90
_cell_angle_gamma    90

_symmetry_space_group_name_H-M    "P 1"
_symmetry_int_tables_number       1

loop_
  _symmetry_equiv_pos_as_xyz
  'x, y, z'

loop_
  _atom_site_label
  _atom_site_occupancy
  _atom_site_fract_x
  _atom_site_fract_y
  _atom_site_fract_z
  _atom_site_thermal_displace_type
  _atom_site_B_iso_or_equiv
  _atom_site_type_symbol
  C1       1.0000 0.22601  0.91347  0.49512  Biso   1.000  C 
  H1       1.0000 0.28339  0.92960  0.46251  Biso   1.000  H 
  C2       1.0000 0.11470  0.85637  0.54085  Biso   1.000  C 
  H2       1.0000 0.05592  0.81614  0.54060  Biso   1.000  H 
  C3       1.0000 0.13489  0.92911  0.58581  Biso   1.000  C 
  H3       1.0000 0.10488  0.96268  0.63342  Biso   1.000  H 
  C4       1.0000 0.11393  0.79364  0.02243  Biso   1.000  C 
  H4       1.0000 0.14669  0.76036  0.97998  Biso   1.000  H 
  C5       1.0000 0.06694  0.97263  0.34225  Biso   1.000  C 
  H5       1.0000 0.08944  0.92202  0.37985  Biso   1.000  H 
  C6       1.0000 0.00836  0.03169  0.24662  Biso   1.000  C 
  H6       1.0000 0.98558  0.04136  0.19079  Biso   1.000  H 
  C7       1.0000 0.55393  0.96254  0.85605  Biso   1.000  C 
  H7       1.0000 0.50464  0.92260  0.82908  Biso   1.000  H 
  C8       1.0000 0.62333  0.24469  0.95167  Biso   1.000  C 
  H8       1.0000 0.66502  0.18860  0.95023  Biso   1.000  H 
  C9       1.0000 0.16528  0.73854  0.28697  Biso   1.000  C 
  H9       1.0000 0.20545  0.75366  0.23924  Biso   1.000  H 
  C10      1.0000 0.04973  0.71856  0.35076  Biso   1.000  C 
  H10      1.0000 0.98246  0.73167  0.36635  Biso   1.000  H 
  C11      1.0000 0.05944  0.21527  0.62875  Biso   1.000  C 
  H11      1.0000 0.99129  0.24042  0.62042  Biso   1.000  H 
  C12      1.0000 0.63333  0.01774  0.94081  Biso   1.000  C 
  H12      1.0000 0.65850  0.03383  0.99633  Biso   1.000  H 
  N1       1.0000 0.17584  0.84456  0.48484  Biso   1.000  N 
  N2       1.0000 0.20847  0.96588  0.55551  Biso   1.000  N 
  N3       1.0000 0.09951  0.23920  0.69352  Biso   1.000  N 
  N4       1.0000 0.08603  0.87763  0.01038  Biso   1.000  N 
  N5       1.0000 0.02538  0.95302  0.27833  Biso   1.000  N 
  N6       1.0000 0.54897  0.98429  0.93079  Biso   1.000  N 
  N7       1.0000 0.62562  0.31087  0.99657  Biso   1.000  N 
  N8       1.0000 0.07629  0.74932  0.28512  Biso   1.000  N 
  Zn1      1.0000 0.28336  0.06668  0.59547  Biso   1.000  Zn
  Zn2      1.0000 0.35835  0.38673  0.21164  Biso   1.000  Zn
  C13      1.0000 0.98518  0.78063  0.84982  Biso   1.000  C 
  H13      1.0000 0.96233  0.75853  0.90147  Biso   1.000  H 
  C14      1.0000 0.07294  0.83462  0.76587  Biso   1.000  C 
  H14      1.0000 0.12863  0.86411  0.74283  Biso   1.000  H 
  C15      1.0000 0.01287  0.77468  0.73176  Biso   1.000  C 
  H15      1.0000 0.00753  0.75197  0.67514  Biso   1.000  H 
  C16      1.0000 0.47457  0.80573  0.39406  Biso   1.000  C 
  H16      1.0000 0.48850  0.75245  0.42983  Biso   1.000  H 
  C17      1.0000 0.34820  0.02154  0.87531  Biso   1.000  C 
  H17      1.0000 0.40276  0.06001  0.86017  Biso   1.000  H 
  C18      1.0000 0.28198  0.92893  0.94646  Biso   1.000  C 
  H18      1.0000 0.26362  0.88761  0.99150  Biso   1.000  H 
  C19      1.0000 0.77008  0.66111  0.93675  Biso   1.000  C 
  H19      1.0000 0.71767  0.70889  0.92374  Biso   1.000  H 
  C20      1.0000 0.69604  0.67404  0.69445  Biso   1.000  C 
  H20      1.0000 0.69129  0.60538  0.68527  Biso   1.000  H 
  C21      1.0000 0.98783  0.47482  0.78680  Biso   1.000  C 
  H21      1.0000 0.05192  0.50086  0.78681  Biso   1.000  H 
  C22      1.0000 0.84681  0.46605  0.77231  Biso   1.000  C 
  H22      1.0000 0.77774  0.48613  0.77305  Biso   1.000  H 
  C23      1.0000 0.45983  0.79915  0.09349  Biso   1.000  C 
  H23      1.0000 0.39569  0.82125  0.12017  Biso   1.000  H 
  C24      1.0000 0.88784  0.58217  0.94728  Biso   1.000  C 
  H24      1.0000 0.93817  0.53806  0.93609  Biso   1.000  H 
  N9       1.0000 0.05093  0.83659  0.83805  Biso   1.000  N 
  N10      1.0000 0.96273  0.73851  0.78501  Biso   1.000  N 
  N11      1.0000 0.49974  0.85208  0.04220  Biso   1.000  N 
  N12      1.0000 0.39351  0.81363  0.36282  Biso   1.000  N 
  N13      1.0000 0.35768  0.96874  0.94033  Biso   1.000  N 
  N14      1.0000 0.84041  0.63331  0.89580  Biso   1.000  N 
  N15      1.0000 0.76681  0.70150  0.73735  Biso   1.000  N 
  N16      1.0000 0.91588  0.52516  0.77552  Biso   1.000  N 
  Zn3      1.0000 0.09100  0.93199  0.90756  Biso   1.000  Zn
  Zn4      1.0000 0.86825  0.65234  0.79224  Biso   1.000  Zn
  C25      1.0000 0.67095  0.50401  0.11162  Biso   1.000  C 
  H25      1.0000 0.64340  0.50364  0.05933  Biso   1.000  H 
  C26      1.0000 0.72587  0.45524  0.21144  Biso   1.000  C 
  H26      1.0000 0.74436  0.41144  0.25790  Biso   1.000  H 
  C27      1.0000 0.71326  0.54357  0.21769  Biso   1.000  C 
  H27      1.0000 0.73068  0.59090  0.25671  Biso   1.000  H 
  C28      1.0000 0.09140  0.37773  0.18408  Biso   1.000  C 
  H28      1.0000 0.03202  0.40401  0.15942  Biso   1.000  H 
  C29      1.0000 0.74312  0.80241  0.22950  Biso   1.000  C 
  H29      1.0000 0.68051  0.81207  0.25587  Biso   1.000  H 
  C30      1.0000 0.85557  0.75732  0.16507  Biso   1.000  C 
  H30      1.0000 0.88948  0.73473  0.11705  Biso   1.000  H 
  C31      1.0000 0.57550  0.81609  0.02619  Biso   1.000  C 
  H31      1.0000 0.62709  0.84978  0.99243  Biso   1.000  H 
  C32      1.0000 0.37510  0.71309  0.53216  Biso   1.000  C 
  H32      1.0000 0.36844  0.78303  0.53961  Biso   1.000  H 
  C33      1.0000 0.49983  0.27467  0.14854  Biso   1.000  C 
  H33      1.0000 0.47380  0.28473  0.09505  Biso   1.000  H 
  C34      1.0000 0.50221  0.28488  0.26788  Biso   1.000  C 
  H34      1.0000 0.47717  0.30348  0.32231  Biso   1.000  H 
  C35      1.0000 0.85115  0.59143  0.01742  Biso   1.000  C 
  H35      1.0000 0.86933  0.55939  0.06898  Biso   1.000  H 
  C36      1.0000 0.51437  0.72987  0.10779  Biso   1.000  C 
  H36      1.0000 0.49986  0.68102  0.14605  Biso   1.000  H 
  N17      1.0000 0.69721  0.43105  0.14378  Biso   1.000  N 
  N18      1.0000 0.68274  0.57511  0.15324  Biso   1.000  N 
  N19      1.0000 0.77659  0.64050  0.00805  Biso   1.000  N 
  N20      1.0000 0.09363  0.29727  0.22665  Biso   1.000  N 
  N21      1.0000 0.76685  0.75399  0.16908  Biso   1.000  N 
  N22      1.0000 0.59027  0.74368  0.06853  Biso   1.000  N 
  N23      1.0000 0.35515  0.66205  0.47185  Biso   1.000  N 
  N24      1.0000 0.44902  0.29607  0.20817  Biso   1.000  N 
  Zn5      1.0000 0.00038  0.21873  0.25863  Biso   1.000  Zn
  Zn6      1.0000 0.69984  0.68380  0.09687  Biso   1.000  Zn
  C37      1.0000 0.60730  0.12063  0.38728  Biso   1.000  C 
  H37      1.0000 0.55122  0.15881  0.40445  Biso   1.000  H 
  C38      1.0000 0.66088  0.02540  0.31017  Biso   1.000  C 
  H38      1.0000 0.66679  0.97908  0.26614  Biso   1.000  H 
  C39      1.0000 0.72398  0.04899  0.36051  Biso   1.000  C 
  H39      1.0000 0.79209  0.02644  0.36628  Biso   1.000  H 
  C40      1.0000 0.47060  0.51496  0.27804  Biso   1.000  C 
  H40      1.0000 0.53224  0.48435  0.27019  Biso   1.000  H 
  C41      1.0000 0.37512  0.91317  0.65935  Biso   1.000  C 
  H41      1.0000 0.31424  0.87857  0.65103  Biso   1.000  H 
  C42      1.0000 0.47156  0.02103  0.65586  Biso   1.000  C 
  H42      1.0000 0.50423  0.08214  0.64658  Biso   1.000  H 
  C43      1.0000 0.17891  0.20004  0.69066  Biso   1.000  C 
  H43      1.0000 0.23024  0.20854  0.73305  Biso   1.000  H 
  C44      1.0000 0.41856  0.54247  0.02506  Biso   1.000  C 
  H44      1.0000 0.45119  0.59125  0.98893  Biso   1.000  H 
  C45      1.0000 0.02755  0.09027  0.82522  Biso   1.000  C 
  H45      1.0000 0.03470  0.07234  0.76670  Biso   1.000  H 
  C46      1.0000 0.98949  0.18660  0.91124  Biso   1.000  C 
  H46      1.0000 0.98045  0.24942  0.93535  Biso   1.000  H 
  C47      1.0000 0.68510  0.00764  0.88045  Biso   1.000  C 
  H47      1.0000 0.74419  0.04113  0.86372  Biso   1.000  H 
  C48      1.0000 0.11237  0.15842  0.59209  Biso   1.000  C 
  H48      1.0000 0.10012  0.12798  0.53824  Biso   1.000  H 
  N25      1.0000 0.58725  0.07419  0.32756  Biso   1.000  N 
  N26      1.0000 0.68865  0.10563  0.40977  Biso   1.000  N 
  N27      1.0000 0.63151  0.97274  0.82382  Biso   1.000  N 
  N28      1.0000 0.39196  0.47159  0.28405  Biso   1.000  N 
  N29      1.0000 0.38529  0.00283  0.64341  Biso   1.000  N 
  N30      1.0000 0.19334  0.15287  0.62980  Biso   1.000  N 
  N31      1.0000 0.37471  0.47839  0.98731  Biso   1.000  N 
  N32      1.0000 0.00357  0.17491  0.83696  Biso   1.000  N 
  Zn7      1.0000 0.73785  0.19632  0.48385  Biso   1.000  Zn
  Zn8      1.0000 0.04826  0.28733  0.78644  Biso   1.000  Zn
  C49      1.0000 0.87157  0.22025  0.36991  Biso   1.000  C 
  H49      1.0000 0.84160  0.17938  0.33137  Biso   1.000  H 
  C50      1.0000 0.89464  0.32492  0.44629  Biso   1.000  C 
  H50      1.0000 0.88846  0.35735  0.49894  Biso   1.000  H 
  C51      1.0000 0.95757  0.33256  0.39133  Biso   1.000  C 
  H51      1.0000 0.01273  0.37795  0.39142  Biso   1.000  H 
  C52      1.0000 0.01206  0.10612  0.94208  Biso   1.000  C 
  H52      1.0000 0.00196  0.08332  0.00017  Biso   1.000  H 
  C53      1.0000 0.64701  0.74736  0.67698  Biso   1.000  C 
  H53      1.0000 0.59014  0.75179  0.64098  Biso   1.000  H 
  C54      1.0000 0.75489  0.78763  0.74643  Biso   1.000  C 
  H54      1.0000 0.79708  0.83481  0.77492  Biso   1.000  H 
  C55      1.0000 0.38165  0.07759  0.45798  Biso   1.000  C 
  H55      1.0000 0.41901  0.02023  0.47427  Biso   1.000  H 
  C56      1.0000 0.26688  0.00866  0.84943  Biso   1.000  C 
  H56      1.0000 0.22928  0.03769  0.80427  Biso   1.000  H 
  C57      1.0000 0.33204  0.53439  0.29588  Biso   1.000  C 
  H57      1.0000 0.26059  0.52542  0.30108  Biso   1.000  H 
  C58      1.0000 0.45394  0.60342  0.28834  Biso   1.000  C 
  H58      1.0000 0.49815  0.65690  0.29050  Biso   1.000  H 
  C59      1.0000 0.74074  0.11864  0.70123  Biso   1.000  C 
  H59      1.0000 0.74625  0.12036  0.75785  Biso   1.000  H 
  C60      1.0000 0.30467  0.19647  0.46012  Biso   1.000  C 
  H60      1.0000 0.26765  0.25293  0.47418  Biso   1.000  H 
  N33      1.0000 0.84085  0.25212  0.43226  Biso   1.000  N 
  N34      1.0000 0.94061  0.26406  0.34514  Biso   1.000  N 
  N35      1.0000 0.70753  0.04240  0.66780  Biso   1.000  N 
  N36      1.0000 0.03763  0.04707  0.88861  Biso   1.000  N 
  N37      1.0000 0.68552  0.81863  0.71007  Biso   1.000  N 
  N38      1.0000 0.32930  0.12799  0.50514  Biso   1.000  N 
  N39      1.0000 0.22733  0.94748  0.89026  Biso   1.000  N 
  N40      1.0000 0.36287  0.61528  0.29488  Biso   1.000  N 
  Zn9      1.0000 0.63946  0.94279  0.71553  Biso   1.000  Zn
  Zn10     1.0000 0.46228  0.05699  0.31145  Biso   1.000  Zn
  C61      1.0000 0.82465  0.23767  0.17966  Biso   1.000  C 
  H61      1.0000 0.79088  0.23419  0.23212  Biso   1.000  H 
  C62      1.0000 0.85026  0.24595  0.06507  Biso   1.000  C 
  H62      1.0000 0.83546  0.25764  0.00930  Biso   1.000  H 
  C63      1.0000 0.93207  0.24707  0.09985  Biso   1.000  C 
  H63      1.0000 0.00205  0.25936  0.08483  Biso   1.000  H 
  C64      1.0000 0.58479  0.26160  0.24294  Biso   1.000  C 
  H64      1.0000 0.65169  0.25828  0.26859  Biso   1.000  H 
  C65      1.0000 0.55024  0.25691  0.90275  Biso   1.000  C 
  H65      1.0000 0.53402  0.21835  0.85613  Biso   1.000  H 
  C66      1.0000 0.55726  0.36468  0.98096  Biso   1.000  C 
  H66      1.0000 0.54538  0.41672  0.01827  Biso   1.000  H 
  C67      1.0000 0.41130  0.44541  0.73202  Biso   1.000  C 
  H67      1.0000 0.34566  0.43371  0.72027  Biso   1.000  H 
  C68      1.0000 0.07911  0.06191  0.34307  Biso   1.000  C 
  H68      1.0000 0.10964  0.10111  0.38788  Biso   1.000  H 
  C69      1.0000 0.18107  0.27903  0.22884  Biso   1.000  C 
  H69      1.0000 0.20595  0.22614  0.26460  Biso   1.000  H 
  C70      1.0000 0.17735  0.40599  0.17540  Biso   1.000  C 
  H70      1.0000 0.20097  0.46465  0.14485  Biso   1.000  H 
  C71      1.0000 0.33023  0.05062  0.11321  Biso   1.000  C 
  H71      1.0000 0.27587  0.02986  0.07885  Biso   1.000  H 
  C72      1.0000 0.53604  0.46096  0.79017  Biso   1.000  C 
  H72      1.0000 0.58761  0.47924  0.82793  Biso   1.000  H 
  N41      1.0000 0.78485  0.24013  0.11472  Biso   1.000  N 
  N42      1.0000 0.91292  0.24405  0.17534  Biso   1.000  N 
  N43      1.0000 0.41985  0.03409  0.09346  Biso   1.000  N 
  N44      1.0000 0.58151  0.25822  0.16589  Biso   1.000  N 
  N45      1.0000 0.50789  0.33322  0.92602  Biso   1.000  N 
  N46      1.0000 0.44584  0.45810  0.79789  Biso   1.000  N 
  N47      1.0000 0.03873  0.09876  0.28387  Biso   1.000  N 
  N48      1.0000 0.23045  0.34572  0.20488  Biso   1.000  N 
  Zn11     1.0000 0.67528  0.30722  0.10073  Biso   1.000  Zn
  Zn12     1.0000 0.31788  0.70489  0.37314  Biso   1.000  Zn
  C73      1.0000 0.22737  0.36870  0.83217  Biso   1.000  C 
  H73      1.0000 0.22566  0.42521  0.79366  Biso   1.000  H 
  C74      1.0000 0.28301  0.26477  0.89547  Biso   1.000  C 
  H74      1.0000 0.32196  0.22908  0.93533  Biso   1.000  H 
  C75      1.0000 0.19786  0.23655  0.87600  Biso   1.000  C 
  H75      1.0000 0.15697  0.17920  0.88527  Biso   1.000  H 
  C76      1.0000 0.87612  0.37956  0.77855  Biso   1.000  C 
  H76      1.0000 0.84245  0.31823  0.78781  Biso   1.000  H 
  C77      1.0000 0.41133  0.52816  0.09840  Biso   1.000  C 
  H77      1.0000 0.43926  0.54773  0.14930  Biso   1.000  H 
  C78      1.0000 0.34104  0.42195  0.03894  Biso   1.000  C 
  H78      1.0000 0.30299  0.36636  0.02233  Biso   1.000  H 
  C79      1.0000 0.46498  0.05709  0.15236  Biso   1.000  C 
  H79      1.0000 0.53564  0.05044  0.15495  Biso   1.000  H 
  C80      1.0000 0.45886  0.87956  0.67368  Biso   1.000  C 
  H80      1.0000 0.48556  0.81400  0.67867  Biso   1.000  H 
  C81      1.0000 0.39338  0.89126  0.32315  Biso   1.000  C 
  H81      1.0000 0.33794  0.91015  0.29028  Biso   1.000  H 
  C82      1.0000 0.52007  0.87856  0.37161  Biso   1.000  C 
  H82      1.0000 0.58392  0.90028  0.38671  Biso   1.000  H 
  C83      1.0000 0.55521  0.44488  0.71463  Biso   1.000  C 
  H83      1.0000 0.61575  0.42677  0.68759  Biso   1.000  H 
  C84      1.0000 0.33042  0.07568  0.18716  Biso   1.000  C 
  H84      1.0000 0.27645  0.08823  0.22573  Biso   1.000  H 
  N49      1.0000 0.29808  0.34972  0.86996  Biso   1.000  N 
  N50      1.0000 0.16492  0.30300  0.83493  Biso   1.000  N 
  N51      1.0000 0.47250  0.43234  0.67818  Biso   1.000  N 
  N52      1.0000 0.96902  0.38541  0.78658  Biso   1.000  N 
  N53      1.0000 0.36340  0.45022  0.10591  Biso   1.000  N 
  N54      1.0000 0.41403  0.08262  0.21008  Biso   1.000  N 
  N55      1.0000 0.51681  0.94889  0.67312  Biso   1.000  N 
  N56      1.0000 0.47093  0.92835  0.32514  Biso   1.000  N 
  Zn13     1.0000 0.39760  0.41822  0.89613  Biso   1.000  Zn
  Zn14     1.0000 0.45777  0.96613  0.00425  Biso   1.000  Zn
  C85      1.0000 0.57244  0.31728  0.52659  Biso   1.000  C 
  H85      1.0000 0.54413  0.27137  0.56378  Biso   1.000  H 
  C86      1.0000 0.59267  0.43800  0.45935  Biso   1.000  C 
  H86      1.0000 0.58504  0.50316  0.43458  Biso   1.000  H 
  C87      1.0000 0.65451  0.37766  0.44177  Biso   1.000  C 
  H87      1.0000 0.71158  0.38105  0.40641  Biso   1.000  H 
  C88      1.0000 0.12295  0.69812  0.39266  Biso   1.000  C 
  H88      1.0000 0.12980  0.69254  0.45281  Biso   1.000  H 
  C89      1.0000 0.40860  0.65999  0.58676  Biso   1.000  C 
  H89      1.0000 0.44275  0.66322  0.63988  Biso   1.000  H 
  C90      1.0000 0.37392  0.58169  0.48775  Biso   1.000  C 
  H90      1.0000 0.35775  0.52400  0.45970  Biso   1.000  H 
  C91      1.0000 0.70624  0.06286  0.59742  Biso   1.000  C 
  H91      1.0000 0.67916  0.01817  0.55326  Biso   1.000  H 
  C92      1.0000 0.81959  0.83615  0.25724  Biso   1.000  C 
  H92      1.0000 0.83201  0.88498  0.29967  Biso   1.000  H 
  C93      1.0000 0.06037  0.90533  0.07611  Biso   1.000  C 
  H93      1.0000 0.04594  0.97597  0.08778  Biso   1.000  H 
  C94      1.0000 0.10293  0.77109  0.09328  Biso   1.000  C 
  H94      1.0000 0.11818  0.70968  0.11896  Biso   1.000  H 
  C95      1.0000 0.33549  0.18233  0.38934  Biso   1.000  C 
  H95      1.0000 0.32854  0.21400  0.33852  Biso   1.000  H 
  C96      1.0000 0.76732  0.17545  0.64908  Biso   1.000  C 
  H96      1.0000 0.80151  0.23670  0.65674  Biso   1.000  H 
  N57      1.0000 0.53618  0.39798  0.50826  Biso   1.000  N 
  N58      1.0000 0.64324  0.30011  0.48575  Biso   1.000  N 
  N59      1.0000 0.38305  0.10474  0.38834  Biso   1.000  N 
  N60      1.0000 0.19669  0.70871  0.35116  Biso   1.000  N 
  N61      1.0000 0.40554  0.57285  0.55947  Biso   1.000  N 
  N62      1.0000 0.74351  0.14363  0.57981  Biso   1.000  N 
  N63      1.0000 0.89491  0.80686  0.21991  Biso   1.000  N 
  N64      1.0000 0.07145  0.84558  0.12851  Biso   1.000  N 
  Zn15     1.0000 0.46889  0.46874  0.57811  Biso   1.000  Zn
  Zn16     1.0000 0.01986  0.83692  0.22156  Biso   1.000  Zn
