data DFT
_chemical_name_common		'DFT'
_cell_length_a		14.15000000
_cell_length_b		14.15000000
_cell_length_c		9.02300000
_cell_angle_alpha		90.000000
_cell_angle_beta		90.000000
_cell_angle_gamma		90.000000
_space group_name_H-M_alt		'P 1'
_space_group_IT_number		1

loop_
	_atom_site_label
	_atom_site_type_symbol
	_atom_site_fract_x
	_atom_site_fract_y
	_atom_site_fract_z
	O1	O	-1.571500000000E-01	1.571500000000E-01	2.500000000000E-01
	O2	O	1.571500000000E-01	-1.571500000000E-01	2.500000000000E-01
	O3	O	-1.571500000000E-01	-1.571500000000E-01	-2.500000000000E-01
	O4	O	1.571500000000E-01	1.571500000000E-01	-2.500000000000E-01
	O5	O	1.571500000000E-01	-1.571500000000E-01	-2.500000000000E-01
	O6	O	-1.571500000000E-01	1.571500000000E-01	-2.500000000000E-01
	O7	O	1.571500000000E-01	1.571500000000E-01	2.500000000000E-01
	O8	O	-1.571500000000E-01	-1.571500000000E-01	2.500000000000E-01
	O9	O	-1.371000000000E-01	2.500000000000E-01	0.000000000000E+00
	O10	O	1.371000000000E-01	2.500000000000E-01	0.000000000000E+00
	O11	O	2.500000000000E-01	1.371000000000E-01	-5.000000000000E-01
	O12	O	2.500000000000E-01	-1.371000000000E-01	-5.000000000000E-01
	O13	O	0.000000000000E+00	2.500000000000E-01	1.976000000000E-01
	O14	O	0.000000000000E+00	2.500000000000E-01	-1.976000000000E-01
	O15	O	2.500000000000E-01	0.000000000000E+00	3.024000000000E-01
	O16	O	2.500000000000E-01	0.000000000000E+00	-3.024000000000E-01
	Si17	Si	-1.125500000000E-01	2.500000000000E-01	1.740000000000E-01
	Si18	Si	1.125500000000E-01	2.500000000000E-01	1.740000000000E-01
	Si19	Si	-1.125500000000E-01	2.500000000000E-01	-1.740000000000E-01
	Si20	Si	1.125500000000E-01	2.500000000000E-01	-1.740000000000E-01
	Si21	Si	2.500000000000E-01	1.125500000000E-01	3.260000000000E-01
	Si22	Si	2.500000000000E-01	-1.125500000000E-01	3.260000000000E-01
	Si23	Si	2.500000000000E-01	1.125500000000E-01	-3.260000000000E-01
	Si24	Si	2.500000000000E-01	-1.125500000000E-01	-3.260000000000E-01
	O25	O	-3.428500000000E-01	-1.571500000000E-01	2.500000000000E-01
	O26	O	1.571500000000E-01	-3.428500000000E-01	2.500000000000E-01
	O27	O	-3.428500000000E-01	1.571500000000E-01	2.500000000000E-01
	O28	O	-3.428500000000E-01	-3.428500000000E-01	2.500000000000E-01
	O29	O	-3.428500000000E-01	3.428500000000E-01	2.500000000000E-01
	O30	O	-1.571500000000E-01	3.428500000000E-01	2.500000000000E-01
	O31	O	3.428500000000E-01	-1.571500000000E-01	2.500000000000E-01
	O32	O	3.428500000000E-01	3.428500000000E-01	2.500000000000E-01
	O33	O	3.428500000000E-01	1.571500000000E-01	2.500000000000E-01
	O34	O	-1.371000000000E-01	-2.500000000000E-01	0.000000000000E+00
	O35	O	3.629000000000E-01	2.500000000000E-01	0.000000000000E+00
	O36	O	3.629000000000E-01	-2.500000000000E-01	0.000000000000E+00
	O37	O	-1.571500000000E-01	3.428500000000E-01	-2.500000000000E-01
	O38	O	1.371000000000E-01	-2.500000000000E-01	0.000000000000E+00
	O39	O	-3.629000000000E-01	2.500000000000E-01	0.000000000000E+00
	O40	O	-3.629000000000E-01	-2.500000000000E-01	0.000000000000E+00
	O41	O	3.428500000000E-01	-1.571500000000E-01	-2.500000000000E-01
	O42	O	2.500000000000E-01	-3.629000000000E-01	-5.000000000000E-01
	O43	O	-2.500000000000E-01	1.371000000000E-01	-5.000000000000E-01
	O44	O	-2.500000000000E-01	-3.629000000000E-01	-5.000000000000E-01
	O45	O	3.428500000000E-01	3.428500000000E-01	-2.500000000000E-01
	O46	O	2.500000000000E-01	3.629000000000E-01	-5.000000000000E-01
	O47	O	-2.500000000000E-01	-1.371000000000E-01	-5.000000000000E-01
	O48	O	-2.500000000000E-01	3.629000000000E-01	-5.000000000000E-01
	O49	O	3.428500000000E-01	-3.428500000000E-01	2.500000000000E-01
	O50	O	0.000000000000E+00	-2.500000000000E-01	1.976000000000E-01
	O51	O	-5.000000000000E-01	2.500000000000E-01	1.976000000000E-01
	O52	O	-5.000000000000E-01	-2.500000000000E-01	1.976000000000E-01
	O53	O	1.571500000000E-01	-3.428500000000E-01	-2.500000000000E-01
	O54	O	0.000000000000E+00	-2.500000000000E-01	-1.976000000000E-01
	O55	O	-5.000000000000E-01	2.500000000000E-01	-1.976000000000E-01
	O56	O	-5.000000000000E-01	-2.500000000000E-01	-1.976000000000E-01
	O57	O	-3.428500000000E-01	1.571500000000E-01	-2.500000000000E-01
	O58	O	2.500000000000E-01	-5.000000000000E-01	3.024000000000E-01
	O59	O	-2.500000000000E-01	0.000000000000E+00	3.024000000000E-01
	O60	O	-2.500000000000E-01	-5.000000000000E-01	3.024000000000E-01
	O61	O	-3.428500000000E-01	-3.428500000000E-01	-2.500000000000E-01
	O62	O	2.500000000000E-01	-5.000000000000E-01	-3.024000000000E-01
	O63	O	-2.500000000000E-01	0.000000000000E+00	-3.024000000000E-01
	O64	O	-2.500000000000E-01	-5.000000000000E-01	-3.024000000000E-01
	O65	O	-1.571500000000E-01	-3.428500000000E-01	2.500000000000E-01
	Si66	Si	-1.125500000000E-01	-2.500000000000E-01	1.740000000000E-01
	Si67	Si	3.874500000000E-01	2.500000000000E-01	1.740000000000E-01
	Si68	Si	3.874500000000E-01	-2.500000000000E-01	1.740000000000E-01
	O69	O	1.571500000000E-01	3.428500000000E-01	-2.500000000000E-01
	Si70	Si	1.125500000000E-01	-2.500000000000E-01	1.740000000000E-01
	Si71	Si	-3.874500000000E-01	2.500000000000E-01	1.740000000000E-01
	Si72	Si	-3.874500000000E-01	-2.500000000000E-01	1.740000000000E-01
	O73	O	-3.428500000000E-01	-1.571500000000E-01	-2.500000000000E-01
	Si74	Si	-1.125500000000E-01	-2.500000000000E-01	-1.740000000000E-01
	Si75	Si	3.874500000000E-01	2.500000000000E-01	-1.740000000000E-01
	Si76	Si	3.874500000000E-01	-2.500000000000E-01	-1.740000000000E-01
	O77	O	-3.428500000000E-01	3.428500000000E-01	-2.500000000000E-01
	Si78	Si	1.125500000000E-01	-2.500000000000E-01	-1.740000000000E-01
	Si79	Si	-3.874500000000E-01	2.500000000000E-01	-1.740000000000E-01
	Si80	Si	-3.874500000000E-01	-2.500000000000E-01	-1.740000000000E-01
	O81	O	1.571500000000E-01	3.428500000000E-01	2.500000000000E-01
	Si82	Si	2.500000000000E-01	-3.874500000000E-01	3.260000000000E-01
	Si83	Si	-2.500000000000E-01	1.125500000000E-01	3.260000000000E-01
	Si84	Si	-2.500000000000E-01	-3.874500000000E-01	3.260000000000E-01
	O85	O	-1.571500000000E-01	-3.428500000000E-01	-2.500000000000E-01
	Si86	Si	2.500000000000E-01	3.874500000000E-01	3.260000000000E-01
	Si87	Si	-2.500000000000E-01	-1.125500000000E-01	3.260000000000E-01
	Si88	Si	-2.500000000000E-01	3.874500000000E-01	3.260000000000E-01
	O89	O	3.428500000000E-01	1.571500000000E-01	-2.500000000000E-01
	Si90	Si	2.500000000000E-01	-3.874500000000E-01	-3.260000000000E-01
	Si91	Si	-2.500000000000E-01	1.125500000000E-01	-3.260000000000E-01
	Si92	Si	-2.500000000000E-01	-3.874500000000E-01	-3.260000000000E-01
	O93	O	3.428500000000E-01	-3.428500000000E-01	-2.500000000000E-01
	Si94	Si	2.500000000000E-01	3.874500000000E-01	-3.260000000000E-01
	Si95	Si	-2.500000000000E-01	-1.125500000000E-01	-3.260000000000E-01
	Si96	Si	-2.500000000000E-01	3.874500000000E-01	-3.260000000000E-01
