data_CAN_model
_audit_creation_date              2008-03-16
_audit_creation_method            'Materials Studio'
_symmetry_space_group_name_H-M    'P1'
_symmetry_Int_Tables_number       1
_symmetry_cell_setting            triclinic
loop_
_symmetry_equiv_pos_as_xyz
  x,y,z
_cell_length_a                    24.3284
_cell_length_b                    24.3005
_cell_length_c                    10.0656
_cell_angle_alpha                 90.0089
_cell_angle_beta                  89.9894
_cell_angle_gamma                 119.7338
loop_
_atom_site_label
_atom_site_type_symbol
_atom_site_fract_x
_atom_site_fract_y
_atom_site_fract_z
_atom_site_U_iso_or_equiv
_atom_site_adp_type
_atom_site_occupancy
Zn1    Zn    0.07647   0.41538   0.74518   0.00000  Uiso   1.00
Zn2    Zn    0.91205   0.58284   0.24530   0.00000  Uiso   1.00
Zn3    Zn    0.57764   0.66233   0.74493   0.00000  Uiso   1.00
Zn4    Zn    0.32850   0.91678   0.74499   0.00000  Uiso   1.00
Zn5    Zn    0.66097   0.07866   0.24592   0.00000  Uiso   1.00
Zn6    Zn    0.41124   0.33331   0.24486   0.00000  Uiso   1.00
Zn7    Zn    0.32876   0.41570   0.74505   0.00000  Uiso   1.00
Zn8    Zn    0.65975   0.58208   0.24493   0.00000  Uiso   1.00
Zn9    Zn    0.57788   0.91615   0.74682   0.00000  Uiso   1.00
Zn10   Zn    0.07601   0.66484   0.74479   0.00000  Uiso   1.00
Zn11   Zn    0.91212   0.33304   0.24476   0.00000  Uiso   1.00
Zn12   Zn    0.41149   0.07935   0.24505   0.00000  Uiso   1.00
C13    C     0.20603   0.42220   0.76063   0.00000  Uiso   1.00
N14    N     0.14914   0.40031   0.70152   0.00000  Uiso   1.00
N15    N     0.24118   0.40011   0.70196   0.00000  Uiso   1.00
C16    C     0.14807   0.36207   0.59920   0.00000  Uiso   1.00
C17    C     0.20449   0.36194   0.59947   0.00000  Uiso   1.00
H18    H     0.22165   0.45371   0.84490   0.00000  Uiso   1.00
H19    H     0.22139   0.33787   0.53592   0.00000  Uiso   1.00
H20    H     0.10749   0.33816   0.53519   0.00000  Uiso   1.00
C21    C     0.78240   0.57550   0.25984   0.00000  Uiso   1.00
N22    N     0.83941   0.59759   0.20113   0.00000  Uiso   1.00
N23    N     0.74722   0.59745   0.20093   0.00000  Uiso   1.00
C24    C     0.84053   0.63583   0.09878   0.00000  Uiso   1.00
C25    C     0.78401   0.63576   0.09869   0.00000  Uiso   1.00
H26    H     0.76675   0.54391   0.34397   0.00000  Uiso   1.00
H27    H     0.76709   0.65974   0.03495   0.00000  Uiso   1.00
H28    H     0.88121   0.65983   0.03504   0.00000  Uiso   1.00
C29    C     0.57071   0.78570   0.76122   0.00000  Uiso   1.00
N30    N     0.59277   0.75054   0.70220   0.00000  Uiso   1.00
N31    N     0.59252   0.84281   0.70259   0.00000  Uiso   1.00
C32    C     0.63088   0.78752   0.59990   0.00000  Uiso   1.00
C33    C     0.63073   0.84400   0.60012   0.00000  Uiso   1.00
H34    H     0.53924   0.76996   0.84551   0.00000  Uiso   1.00
H35    H     0.65466   0.88474   0.53639   0.00000  Uiso   1.00
H36    H     0.65499   0.77079   0.53602   0.00000  Uiso   1.00
C37    C     0.20576   0.78703   0.76184   0.00000  Uiso   1.00
N38    N     0.24082   0.84394   0.70264   0.00000  Uiso   1.00
N39    N     0.14878   0.75218   0.70303   0.00000  Uiso   1.00
C40    C     0.20388   0.84529   0.60014   0.00000  Uiso   1.00
C41    C     0.14752   0.78909   0.60036   0.00000  Uiso   1.00
H42    H     0.22142   0.77117   0.84628   0.00000  Uiso   1.00
H43    H     0.10681   0.77242   0.53660   0.00000  Uiso   1.00
H44    H     0.22056   0.88593   0.53605   0.00000  Uiso   1.00
C45    C     0.78284   0.20946   0.26203   0.00000  Uiso   1.00
N46    N     0.74837   0.15228   0.20341   0.00000  Uiso   1.00
N47    N     0.83950   0.24507   0.20243   0.00000  Uiso   1.00
C48    C     0.78536   0.15155   0.10032   0.00000  Uiso   1.00
C49    C     0.84114   0.20833   0.09973   0.00000  Uiso   1.00
H50    H     0.76693   0.22493   0.34669   0.00000  Uiso   1.00
H51    H     0.88169   0.22544   0.03534   0.00000  Uiso   1.00
H52    H     0.76910   0.11088   0.03643   0.00000  Uiso   1.00
C53    C     0.41858   0.21007   0.26120   0.00000  Uiso   1.00
N54    N     0.39641   0.24523   0.20253   0.00000  Uiso   1.00
N55    N     0.39686   0.15303   0.20224   0.00000  Uiso   1.00
C56    C     0.35833   0.20832   0.10009   0.00000  Uiso   1.00
C57    C     0.35860   0.15189   0.09995   0.00000  Uiso   1.00
H58    H     0.45003   0.22577   0.34550   0.00000  Uiso   1.00
H59    H     0.33468   0.11120   0.03609   0.00000  Uiso   1.00
H60    H     0.33424   0.22507   0.03629   0.00000  Uiso   1.00
C61    C     0.07069   0.53714   0.74263   0.00000  Uiso   1.00
N62    N     0.10535   0.50833   0.72502   0.00000  Uiso   1.00
N63    N     0.10490   0.60034   0.72390   0.00000  Uiso   1.00
C64    C     0.16540   0.55610   0.69312   0.00000  Uiso   1.00
C65    C     0.16512   0.61253   0.69246   0.00000  Uiso   1.00
H66    H     0.02120   0.51237   0.76841   0.00000  Uiso   1.00
H67    H     0.20252   0.65995   0.67177   0.00000  Uiso   1.00
H68    H     0.20305   0.54612   0.67299   0.00000  Uiso   1.00
C69    C     0.91764   0.46058   0.24245   0.00000  Uiso   1.00
N70    N     0.88314   0.48955   0.22458   0.00000  Uiso   1.00
N71    N     0.88325   0.39736   0.22421   0.00000  Uiso   1.00
C72    C     0.82301   0.44180   0.19300   0.00000  Uiso   1.00
C73    C     0.82308   0.38526   0.19278   0.00000  Uiso   1.00
H74    H     0.96714   0.48520   0.26813   0.00000  Uiso   1.00
H75    H     0.78560   0.33785   0.17240   0.00000  Uiso   1.00
H76    H     0.78539   0.45182   0.17276   0.00000  Uiso   1.00
C77    C     0.45532   0.53672   0.74230   0.00000  Uiso   1.00
N78    N     0.48440   0.59993   0.72366   0.00000  Uiso   1.00
N79    N     0.39221   0.50855   0.72417   0.00000  Uiso   1.00
C80    C     0.43682   0.61288   0.69175   0.00000  Uiso   1.00
C81    C     0.38025   0.55680   0.69205   0.00000  Uiso   1.00
H82    H     0.47979   0.51153   0.76842   0.00000  Uiso   1.00
H83    H     0.33290   0.54732   0.67160   0.00000  Uiso   1.00
H84    H     0.44697   0.66048   0.67108   0.00000  Uiso   1.00
C85    C     0.45607   0.92202   0.74264   0.00000  Uiso   1.00
N86    N     0.39296   0.88781   0.72359   0.00000  Uiso   1.00
N87    N     0.48492   0.88737   0.72517   0.00000  Uiso   1.00
C88    C     0.38084   0.82757   0.69191   0.00000  Uiso   1.00
C89    C     0.43721   0.82729   0.69285   0.00000  Uiso   1.00
H90    H     0.48073   0.97153   0.76877   0.00000  Uiso   1.00
H91    H     0.44714   0.78958   0.67259   0.00000  Uiso   1.00
H92    H     0.33351   0.79013   0.67090   0.00000  Uiso   1.00
C93    C     0.53354   0.07381   0.24272   0.00000  Uiso   1.00
N94    N     0.59670   0.10806   0.22436   0.00000  Uiso   1.00
N95    N     0.50465   0.10839   0.22472   0.00000  Uiso   1.00
C96    C     0.60883   0.16832   0.19272   0.00000  Uiso   1.00
C97    C     0.55242   0.16853   0.19296   0.00000  Uiso   1.00
H98    H     0.50885   0.02430   0.26860   0.00000  Uiso   1.00
H99    H     0.54252   0.20625   0.17271   0.00000  Uiso   1.00
H100   H     0.65619   0.20583   0.17223   0.00000  Uiso   1.00
C101   C     0.53323   0.45985   0.24272   0.00000  Uiso   1.00
N102   N     0.50457   0.39663   0.22426   0.00000  Uiso   1.00
N103   N     0.59638   0.48864   0.22411   0.00000  Uiso   1.00
C104   C     0.55252   0.38429   0.19188   0.00000  Uiso   1.00
C105   C     0.60879   0.44068   0.19181   0.00000  Uiso   1.00
H106   H     0.50838   0.48463   0.26922   0.00000  Uiso   1.00
H107   H     0.65622   0.45045   0.17105   0.00000  Uiso   1.00
H108   H     0.54284   0.33685   0.17109   0.00000  Uiso   1.00
C109   C     0.37435   0.38076   0.49198   0.00000  Uiso   1.00
N110   N     0.37856   0.33367   0.43021   0.00000  Uiso   1.00
N111   N     0.34932   0.36426   0.61495   0.00000  Uiso   1.00
C112   C     0.35463   0.28403   0.51945   0.00000  Uiso   1.00
C113   C     0.33674   0.30275   0.63263   0.00000  Uiso   1.00
H114   H     0.38915   0.42647   0.44829   0.00000  Uiso   1.00
H115   H     0.31648   0.27751   0.72361   0.00000  Uiso   1.00
H116   H     0.35194   0.23959   0.49520   0.00000  Uiso   1.00
C117   C     0.61428   0.61615   0.99272   0.00000  Uiso   1.00
N118   N     0.61011   0.66301   0.93006   0.00000  Uiso   1.00
N119   N     0.63921   0.63313   0.11556   0.00000  Uiso   1.00
C120   C     0.63398   0.71298   0.01841   0.00000  Uiso   1.00
C121   C     0.65181   0.69467   0.13218   0.00000  Uiso   1.00
H122   H     0.59959   0.57031   0.94977   0.00000  Uiso   1.00
H123   H     0.67203   0.72018   0.22289   0.00000  Uiso   1.00
H124   H     0.63672   0.75731   0.99307   0.00000  Uiso   1.00
C125   C     0.61316   0.99472   0.49231   0.00000  Uiso   1.00
N126   N     0.66020   0.04557   0.43050   0.00000  Uiso   1.00
N127   N     0.62939   0.98680   0.61605   0.00000  Uiso   1.00
C128   C     0.70944   0.07155   0.52039   0.00000  Uiso   1.00
C129   C     0.69059   0.03556   0.63415   0.00000  Uiso   1.00
H130   H     0.56773   0.96367   0.44818   0.00000  Uiso   1.00
H131   H     0.71555   0.04080   0.72571   0.00000  Uiso   1.00
H132   H     0.75371   0.11301   0.49601   0.00000  Uiso   1.00
C133   C     0.99664   0.62057   0.49105   0.00000  Uiso   1.00
N134   N     0.94510   0.61589   0.42997   0.00000  Uiso   1.00
N135   N     0.00495   0.64548   0.61414   0.00000  Uiso   1.00
C136   C     0.91902   0.63936   0.51979   0.00000  Uiso   1.00
C137   C     0.95565   0.65747   0.63263   0.00000  Uiso   1.00
H138   H     0.02788   0.60620   0.44685   0.00000  Uiso   1.00
H139   H     0.95046   0.67748   0.72393   0.00000  Uiso   1.00
H140   H     0.87701   0.64159   0.49614   0.00000  Uiso   1.00
C141   C     0.99147   0.37672   0.99044   0.00000  Uiso   1.00
N142   N     0.04305   0.38140   0.92952   0.00000  Uiso   1.00
N143   N     0.98311   0.35198   0.11371   0.00000  Uiso   1.00
C144   C     0.06913   0.35805   0.01964   0.00000  Uiso   1.00
C145   C     0.03245   0.34007   0.13248   0.00000  Uiso   1.00
H146   H     0.96018   0.39091   0.94581   0.00000  Uiso   1.00
H147   H     0.03761   0.32012   0.22390   0.00000  Uiso   1.00
H148   H     0.11113   0.35573   0.99621   0.00000  Uiso   1.00
C149   C     0.37597   0.00082   0.99104   0.00000  Uiso   1.00
N150   N     0.32889   0.94994   0.92944   0.00000  Uiso   1.00
N151   N     0.35965   0.00911   0.11441   0.00000  Uiso   1.00
C152   C     0.27950   0.92434   0.01908   0.00000  Uiso   1.00
C153   C     0.29832   0.96060   0.13248   0.00000  Uiso   1.00
H154   H     0.42149   0.03167   0.94703   0.00000  Uiso   1.00
H155   H     0.27333   0.95565   0.22387   0.00000  Uiso   1.00
H156   H     0.23518   0.88290   0.99490   0.00000  Uiso   1.00
C157   C     0.99719   0.38031   0.49054   0.00000  Uiso   1.00
N158   N     0.00574   0.36390   0.61370   0.00000  Uiso   1.00
N159   N     0.94605   0.33335   0.42920   0.00000  Uiso   1.00
C160   C     0.95707   0.30260   0.63189   0.00000  Uiso   1.00
C161   C     0.92055   0.28391   0.51889   0.00000  Uiso   1.00
H162   H     0.02805   0.42580   0.44633   0.00000  Uiso   1.00
H163   H     0.87900   0.23959   0.49500   0.00000  Uiso   1.00
H164   H     0.95225   0.27744   0.72303   0.00000  Uiso   1.00
C165   C     0.99105   0.61712   0.99098   0.00000  Uiso   1.00
N166   N     0.98284   0.63371   0.11422   0.00000  Uiso   1.00
N167   N     0.04231   0.66386   0.92953   0.00000  Uiso   1.00
C168   C     0.03182   0.69483   0.13239   0.00000  Uiso   1.00
C169   C     0.06824   0.71326   0.01924   0.00000  Uiso   1.00
H170   H     0.95994   0.57162   0.94702   0.00000  Uiso   1.00
H171   H     0.11002   0.75735   0.99522   0.00000  Uiso   1.00
H172   H     0.03693   0.71998   0.22365   0.00000  Uiso   1.00
C173   C     0.61255   0.61781   0.49266   0.00000  Uiso   1.00
N174   N     0.62916   0.64247   0.61583   0.00000  Uiso   1.00
N175   N     0.65962   0.61401   0.43023   0.00000  Uiso   1.00
C176   C     0.69067   0.65526   0.63293   0.00000  Uiso   1.00
C177   C     0.70931   0.63781   0.51909   0.00000  Uiso   1.00
H178   H     0.56681   0.60304   0.44942   0.00000  Uiso   1.00
H179   H     0.75372   0.64076   0.49401   0.00000  Uiso   1.00
H180   H     0.71597   0.67543   0.72386   0.00000  Uiso   1.00
C181   C     0.37307   0.99560   0.49175   0.00000  Uiso   1.00
N182   N     0.34783   0.98762   0.61436   0.00000  Uiso   1.00
N183   N     0.37797   0.04705   0.42964   0.00000  Uiso   1.00
C184   C     0.33583   0.03703   0.63148   0.00000  Uiso   1.00
C185   C     0.35428   0.07342   0.51823   0.00000  Uiso   1.00
H186   H     0.38749   0.96416   0.44863   0.00000  Uiso   1.00
H187   H     0.35214   0.11543   0.49352   0.00000  Uiso   1.00
H188   H     0.31555   0.04245   0.72212   0.00000  Uiso   1.00
C189   C     0.61681   0.00016   0.99263   0.00000  Uiso   1.00
N190   N     0.64195   0.00807   0.11527   0.00000  Uiso   1.00
N191   N     0.61182   0.94865   0.93062   0.00000  Uiso   1.00
C192   C     0.65380   0.95857   0.13250   0.00000  Uiso   1.00
C193   C     0.63538   0.92220   0.01924   0.00000  Uiso   1.00
H194   H     0.60257   0.03170   0.94934   0.00000  Uiso   1.00
H195   H     0.63754   0.88021   0.99445   0.00000  Uiso   1.00
H196   H     0.67399   0.95311   0.22322   0.00000  Uiso   1.00
C197   C     0.37661   0.37873   0.99167   0.00000  Uiso   1.00
N198   N     0.36010   0.35359   0.11456   0.00000  Uiso   1.00
N199   N     0.32953   0.38289   0.93003   0.00000  Uiso   1.00
C200   C     0.29864   0.34088   0.13231   0.00000  Uiso   1.00
C201   C     0.27994   0.35880   0.01923   0.00000  Uiso   1.00
H202   H     0.42233   0.39364   0.94813   0.00000  Uiso   1.00
H203   H     0.23551   0.35599   0.99495   0.00000  Uiso   1.00
H204   H     0.27346   0.32051   0.22325   0.00000  Uiso   1.00
