data_FER_model
_audit_creation_date              2008-03-16
_audit_creation_method            'Materials Studio'
_symmetry_space_group_name_H-M    'P1'
_symmetry_Int_Tables_number       1
_symmetry_cell_setting            triclinic
loop_
_symmetry_equiv_pos_as_xyz
  x,y,z
_cell_length_a                    24.4663
_cell_length_b                    24.3965
_cell_length_c                    24.5397
_cell_angle_alpha                 79.9602
_cell_angle_beta                  110.6732
_cell_angle_gamma                 144.9477
loop_
_atom_site_label
_atom_site_type_symbol
_atom_site_fract_x
_atom_site_fract_y
_atom_site_fract_z
_atom_site_U_iso_or_equiv
_atom_site_adp_type
_atom_site_occupancy
Zn1    Zn    0.99835   0.14953   0.15298   0.00000  Uiso   1.00
Zn2    Zn    0.20132   0.08153   0.28418   0.00000  Uiso   1.00
Zn3    Zn    0.28927   0.55948   0.27011   0.00000  Uiso   1.00
Zn4    Zn    0.40738   0.52822   0.52692   0.00000  Uiso   1.00
Zn5    Zn    0.99722   0.84128   0.84646   0.00000  Uiso   1.00
Zn6    Zn    0.79930   0.91365   0.71584   0.00000  Uiso   1.00
Zn7    Zn    0.29278   0.02154   0.73007   0.00000  Uiso   1.00
Zn8    Zn    0.00928   0.88995   0.47462   0.00000  Uiso   1.00
Zn9    Zn    0.19096   0.90634   0.11512   0.00000  Uiso   1.00
Zn10   Zn    0.70611   0.43556   0.72229   0.00000  Uiso   1.00
Zn11   Zn    0.99568   0.47050   0.87766   0.00000  Uiso   1.00
Zn12   Zn    0.80559   0.08642   0.88286   0.00000  Uiso   1.00
Zn13   Zn    0.70627   0.97799   0.27050   0.00000  Uiso   1.00
Zn14   Zn    0.57718   0.10336   0.11350   0.00000  Uiso   1.00
Zn15   Zn    0.58591   0.47002   0.47014   0.00000  Uiso   1.00
Zn16   Zn    0.99496   0.11806   0.52516   0.00000  Uiso   1.00
Zn17   Zn   -0.00436   0.52114   0.11783   0.00000  Uiso   1.00
Zn18   Zn    0.41175   0.87998   0.87506   0.00000  Uiso   1.00
C19    C     0.18671   0.99649   0.18782   0.00000  Uiso   1.00
N20    N     0.21530   0.02757   0.24474   0.00000  Uiso   1.00
N21    N     0.21319   0.96611   0.18419   0.00000  Uiso   1.00
C22    C     0.26302   0.01632   0.27951   0.00000  Uiso   1.00
C23    C     0.26197   0.97901   0.24254   0.00000  Uiso   1.00
H24    H     0.29194   0.96085   0.25316   0.00000  Uiso   1.00
C25    C     0.48478   0.76570   0.25563   0.00000  Uiso   1.00
H26    H     0.45167   0.78090   0.24016   0.00000  Uiso   1.00
N27    N     0.43277   0.67911   0.26796   0.00000  Uiso   1.00
N28    N     0.58268   0.83099   0.26484   0.00000  Uiso   1.00
C29    C     0.50211   0.69017   0.28648   0.00000  Uiso   1.00
H30    H     0.48133   0.63184   0.29953   0.00000  Uiso   1.00
C31    C     0.59386   0.78313   0.28458   0.00000  Uiso   1.00
H32    H     0.66573   0.81877   0.29620   0.00000  Uiso   1.00
C33    C     0.12174   0.13727   0.22082   0.00000  Uiso   1.00
H34    H     0.18326   0.20610   0.25175   0.00000  Uiso   1.00
N35    N     0.04255   0.10234   0.17551   0.00000  Uiso   1.00
N36    N     0.11587   0.07694   0.22261   0.00000  Uiso   1.00
C37    C     0.98239   0.01417   0.14671   0.00000  Uiso   1.00
H38    H     0.91364   0.97022   0.10793   0.00000  Uiso   1.00
C39    C     0.02710  -0.00149   0.17558   0.00000  Uiso   1.00
H40    H     1.00240   0.93793   0.16643   0.00000  Uiso   1.00
C41    C     0.13409   0.34797   0.21689   0.00000  Uiso   1.00
H42    H     0.08097   0.31651   0.23574   0.00000  Uiso   1.00
N43    N     0.11926   0.29496   0.18446   0.00000  Uiso   1.00
N44    N     0.22308   0.44504   0.22320   0.00000  Uiso   1.00
C45    C     0.20438   0.36278   0.16922   0.00000  Uiso   1.00
H46    H     0.21278   0.34085   0.14246   0.00000  Uiso   1.00
C47    C     0.26778   0.45455   0.19283   0.00000  Uiso   1.00
H48    H     0.34050   0.52531   0.19042   0.00000  Uiso   1.00
C49    C     0.51051   0.51749   0.49411   0.00000  Uiso   1.00
H50    H     0.56387   0.58655   0.48063   0.00000  Uiso   1.00
N51    N     0.44203   0.48071   0.51421   0.00000  Uiso   1.00
N52    N     0.50521   0.45810   0.49308   0.00000  Uiso   1.00
C53    C     0.38997   0.39248   0.52670   0.00000  Uiso   1.00
H54    H     0.33002   0.34692   0.54366   0.00000  Uiso   1.00
C55    C     0.42876   0.37871   0.51380   0.00000  Uiso   1.00
H56    H     0.40929   0.31996   0.51874   0.00000  Uiso   1.00
C57    C     0.80505   0.67629   0.47904   0.00000  Uiso   1.00
H58    H     0.84157   0.67573   0.51917   0.00000  Uiso   1.00
N59    N     0.85674   0.75288   0.45201   0.00000  Uiso   1.00
N60    N     0.70238   0.60024   0.44999   0.00000  Uiso   1.00
C61    C     0.78245   0.72389   0.40277   0.00000  Uiso   1.00
H62    H     0.80240   0.77173   0.37293   0.00000  Uiso   1.00
C63    C     0.68798   0.63042   0.40145   0.00000  Uiso   1.00
H64    H     0.61252   0.58331   0.36979   0.00000  Uiso   1.00
C65    C     0.38545   0.27764   0.37696   0.00000  Uiso   1.00
H66    H     0.33921   0.26323   0.39270   0.00000  Uiso   1.00
N67    N     0.34699   0.21604   0.33328   0.00000  Uiso   1.00
N68    N     0.48890   0.36013   0.39887   0.00000  Uiso   1.00
C69    C     0.43146   0.26238   0.32712   0.00000  Uiso   1.00
H70    H     0.42306   0.22905   0.29505   0.00000  Uiso   1.00
C71    C     0.51823   0.35046   0.36730   0.00000  Uiso   1.00
H72    H     0.59772   0.40668   0.37540   0.00000  Uiso   1.00
C73    C     0.35308   0.54219   0.39610   0.00000  Uiso   1.00
H74    H     0.38791   0.53732   0.38482   0.00000  Uiso   1.00
N75    N     0.30424   0.54863   0.35685   0.00000  Uiso   1.00
N76    N     0.35324   0.54218   0.45112   0.00000  Uiso   1.00
C77    C     0.27127   0.55308   0.38894   0.00000  Uiso   1.00
H78    H     0.22919   0.55838   0.36830   0.00000  Uiso   1.00
C79    C     0.30126   0.54913   0.44665   0.00000  Uiso   1.00
H80    H     0.28938   0.55037   0.48439   0.00000  Uiso   1.00
C81    C     0.81606   0.00140   0.81099   0.00000  Uiso   1.00
N82    N     0.78516   0.96804   0.75416   0.00000  Uiso   1.00
N83    N     0.78898   0.03109   0.81470   0.00000  Uiso   1.00
C84    C     0.73506   0.97694   0.71946   0.00000  Uiso   1.00
H85    H     0.70173   0.95520   0.67159   0.00000  Uiso   1.00
C86    C     0.73720   0.01526   0.75650   0.00000  Uiso   1.00
C87    C     0.48723   0.23027   0.71547   0.00000  Uiso   1.00
H88    H     0.45502   0.21195   0.66743   0.00000  Uiso   1.00
N89    N     0.43369   0.16793   0.75004   0.00000  Uiso   1.00
N90    N     0.58577   0.31837   0.74776   0.00000  Uiso   1.00
C91    C     0.50283   0.21948   0.80799   0.00000  Uiso   1.00
H92    H     0.48148   0.18682   0.84552   0.00000  Uiso   1.00
C93    C     0.59576   0.31167   0.80657   0.00000  Uiso   1.00
H94    H     0.66716   0.37237   0.84263   0.00000  Uiso   1.00
C95    C     0.87740   0.85687   0.77847   0.00000  Uiso   1.00
H96    H     0.81659   0.78880   0.74687   0.00000  Uiso   1.00
N97    N     0.95459   0.88994   0.82481   0.00000  Uiso   1.00
N98    N     0.88419   0.91791   0.77662   0.00000  Uiso   1.00
C99    C     0.01425   0.97746   0.85430   0.00000  Uiso   1.00
H100   H     0.08138   0.01984   0.89401   0.00000  Uiso   1.00
C101   C     0.97146   0.99486   0.82468   0.00000  Uiso   1.00
H102   H     0.99673   0.05586   0.83367   0.00000  Uiso   1.00
C103   C     0.13631   0.91554   0.78608   0.00000  Uiso   1.00
H104   H     0.08135   0.84448   0.76113   0.00000  Uiso   1.00
N105   N     0.12094   0.93102   0.82526   0.00000  Uiso   1.00
N106   N     0.22773   0.99928   0.78084   0.00000  Uiso   1.00
C107   C     0.20799   0.03097   0.84610   0.00000  Uiso   1.00
C108   C     0.27320   0.07272   0.81887   0.00000  Uiso   1.00
C109   C     0.19085   0.33021   0.52070   0.00000  Uiso   1.00
H110   H     0.16207   0.31482   0.47268   0.00000  Uiso   1.00
N111   N     0.28769   0.41801   0.55492   0.00000  Uiso   1.00
N112   N     0.13431   0.26481   0.55321   0.00000  Uiso   1.00
C113   C     0.29328   0.40781   0.61296   0.00000  Uiso   1.00
H114   H     0.36290   0.46773   0.65002   0.00000  Uiso   1.00
C115   C     0.19928   0.31396   0.61192   0.00000  Uiso   1.00
H116   H     0.17359   0.27863   0.64794   0.00000  Uiso   1.00
C117   C     0.89686   1.00391   0.62047   0.00000  Uiso   1.00
H118   H     0.87705   0.94691   0.61055   0.00000  Uiso   1.00
N119   N     0.87440   0.00723   0.66157   0.00000  Uiso   1.00
N120   N     0.94711   0.08005   0.59319   0.00000  Uiso   1.00
C121   C     0.91257   0.09066   0.66036   0.00000  Uiso   1.00
H122   H     0.90478   0.11130   0.68900   0.00000  Uiso   1.00
C123   C     0.95690   0.13521   0.61841   0.00000  Uiso   1.00
C124   C     0.15607   0.96780   0.60322   0.00000  Uiso   1.00
H125   H     0.16799   0.01896   0.61307   0.00000  Uiso   1.00
N126   N     0.20059   0.95723   0.64285   0.00000  Uiso   1.00
N127   N     0.09489   0.90703   0.54969   0.00000  Uiso   1.00
C128   C     0.16539   0.88514   0.61264   0.00000  Uiso   1.00
H129   H     0.18885   0.86154   0.63407   0.00000  Uiso   1.00
C130   C     0.10084   0.85457   0.55557   0.00000  Uiso   1.00
H131   H     0.05986   0.80067   0.51900   0.00000  Uiso   1.00
C132   C     0.11514   0.89373   0.98186   0.00000  Uiso   1.00
H133   H     0.18048   0.92949   0.97641   0.00000  Uiso   1.00
N134   N     0.03554   0.85806   0.93658   0.00000  Uiso   1.00
N135   N     0.10448   0.88086   0.03490   0.00000  Uiso   1.00
C136   C     0.97012   0.82013   0.96238   0.00000  Uiso   1.00
H137   H     0.89966   0.78709   0.93628   0.00000  Uiso   1.00
C138   C     0.01212   0.83377   0.02253   0.00000  Uiso   1.00
C139   C     0.86197   0.64529   0.77948   0.00000  Uiso   1.00
H140   H     0.92287   0.67585   0.77116   0.00000  Uiso   1.00
N141   N     0.87324   0.69818   0.80785   0.00000  Uiso   1.00
N142   N     0.76596   0.54925   0.76322   0.00000  Uiso   1.00
C143   C     0.77835   0.63142   0.80990   0.00000  Uiso   1.00
H144   H     0.76501   0.65354   0.83063   0.00000  Uiso   1.00
C145   C     0.71267   0.54025   0.78255   0.00000  Uiso   1.00
H146   H     0.63327   0.47019   0.77586   0.00000  Uiso   1.00
C147   C     0.79093   0.30970   0.11936   0.00000  Uiso   1.00
H148   H     0.81706   0.28786   0.12818   0.00000  Uiso   1.00
N149   N     0.69619   0.24947   0.11373   0.00000  Uiso   1.00
N150   N     0.84944   0.40042   0.11303   0.00000  Uiso   1.00
C151   C     0.69414   0.30530   0.10302   0.00000  Uiso   1.00
H152   H     0.62672   0.27522   0.09658   0.00000  Uiso   1.00
C153   C     0.78800   0.39781   0.10271   0.00000  Uiso   1.00
H154   H     0.81604   0.46160   0.09649   0.00000  Uiso   1.00
C155   C     0.09134   0.71229   0.10889   0.00000  Uiso   1.00
N156   N     0.11513   0.77709   0.13468   0.00000  Uiso   1.00
N157   N     0.03927   0.63389   0.13408   0.00000  Uiso   1.00
C158   C     0.07562   0.73739   0.17909   0.00000  Uiso   1.00
C159   C     0.02933   0.64975   0.17885   0.00000  Uiso   1.00
H160   H    -0.00984   0.59791   0.20660   0.00000  Uiso   1.00
C161   C     0.85196   0.45752   0.80684   0.00000  Uiso   1.00
H162   H     0.84116   0.45863   0.84534   0.00000  Uiso   1.00
N163   N     0.80832   0.45227   0.75133   0.00000  Uiso   1.00
N164   N     0.91096   0.46152   0.80884   0.00000  Uiso   1.00
C165   C     0.84160   0.45290   0.71573   0.00000  Uiso   1.00
H166   H     0.81811   0.44932   0.66859   0.00000  Uiso   1.00
C167   C     0.90446   0.45855   0.75095   0.00000  Uiso   1.00
H168   H     0.94482   0.46096   0.73935   0.00000  Uiso   1.00
C169   C     0.88048   0.10028   0.01760   0.00000  Uiso   1.00
N170   N     0.95412   0.12617   0.06195   0.00000  Uiso   1.00
N171   N     0.88772   0.10773   0.96395   0.00000  Uiso   1.00
C172   C     0.01207   0.15195   0.03488   0.00000  Uiso   1.00
C173   C     0.97166   0.14096   0.97498   0.00000  Uiso   1.00
H174   H     0.99658   0.15496   0.93988   0.00000  Uiso   1.00
C175   C     0.86605   0.08161   0.21730   0.00000  Uiso   1.00
N176   N     0.87736   0.06365   0.17636   0.00000  Uiso   1.00
N177   N     0.77327   0.00005   0.22155   0.00000  Uiso   1.00
C178   C     0.78590   0.96431   0.15319   0.00000  Uiso   1.00
H179   H     0.77331   0.92906   0.11937   0.00000  Uiso   1.00
C180   C     0.72223   0.92544   0.18077   0.00000  Uiso   1.00
H181   H     0.64551   0.85123   0.17498   0.00000  Uiso   1.00
C182   C     0.19332   0.67177   0.86234   0.00000  Uiso   1.00
H183   H     0.16343   0.69019   0.84742   0.00000  Uiso   1.00
N184   N     0.13651   0.58245   0.87140   0.00000  Uiso   1.00
N185   N     0.29096   0.73473   0.87331   0.00000  Uiso   1.00
C186   C     0.20205   0.58888   0.88944   0.00000  Uiso   1.00
H187   H     0.17611   0.52691   0.89952   0.00000  Uiso   1.00
C188   C     0.29671   0.68217   0.89071   0.00000  Uiso   1.00
H189   H     0.36685   0.71473   0.90235   0.00000  Uiso   1.00
C190   C     0.61481  -0.00505   0.87973   0.00000  Uiso   1.00
H191   H     0.65850   0.06187   0.90255   0.00000  Uiso   1.00
N192   N     0.65709   0.98619   0.86723   0.00000  Uiso   1.00
N193   N     0.51143   0.91105   0.85951   0.00000  Uiso   1.00
C194   C     0.57558   0.89090   0.83670   0.00000  Uiso   1.00
H195   H     0.58736   0.86393   0.82045   0.00000  Uiso   1.00
C196   C     0.48646   0.84503   0.83182   0.00000  Uiso   1.00
H197   H     0.40798   0.77120   0.81097   0.00000  Uiso   1.00
C198   C     0.62323   0.02326   0.18939   0.00000  Uiso   1.00
H199   H     0.58023   0.96948   0.15167   0.00000  Uiso   1.00
N200   N     0.67604   0.03695   0.24435   0.00000  Uiso   1.00
N201   N     0.63107   0.08518   0.18661   0.00000  Uiso   1.00
C202   C     0.72002   0.11216   0.27888   0.00000  Uiso   1.00
H203   H     0.76746   0.13885   0.32537   0.00000  Uiso   1.00
C204   C     0.69227   0.14147   0.24352   0.00000  Uiso   1.00
H205   H     0.71157   0.19774   0.25444   0.00000  Uiso   1.00
C206   C     0.61452   0.71997   0.62198   0.00000  Uiso   1.00
H207   H     0.66037   0.73009   0.61003   0.00000  Uiso   1.00
N208   N     0.51195   0.64465   0.59435   0.00000  Uiso   1.00
N209   N     0.65300   0.78094   0.66617   0.00000  Uiso   1.00
C210   C     0.48322   0.65857   0.62256   0.00000  Uiso   1.00
H211   H     0.40431   0.60830   0.60954   0.00000  Uiso   1.00
C212   C     0.56949   0.74184   0.66662   0.00000  Uiso   1.00
H213   H     0.57809   0.77649   0.69764   0.00000  Uiso   1.00
C214   C     0.66224   0.46849   0.59865   0.00000  Uiso   1.00
H215   H     0.68740   0.52617   0.61667   0.00000  Uiso   1.00
N216   N     0.66230   0.41865   0.63255   0.00000  Uiso   1.00
N217   N     0.62605   0.43719   0.53988   0.00000  Uiso   1.00
C218   C     0.62337   0.35106   0.59285   0.00000  Uiso   1.00
H219   H     0.61442   0.30055   0.60781   0.00000  Uiso   1.00
C220   C     0.60118   0.36248   0.53610   0.00000  Uiso   1.00
H221   H     0.56904   0.32310   0.49365   0.00000  Uiso   1.00
C222   C     0.12833  -0.00551   0.39072   0.00000  Uiso   1.00
N223   N     0.11745   0.98273   0.33435   0.00000  Uiso   1.00
N224   N     0.04585   0.91007   0.40348   0.00000  Uiso   1.00
C225   C     0.02224   0.88455   0.30970   0.00000  Uiso   1.00
C226   C     0.97843   0.84013   0.35193   0.00000  Uiso   1.00
H227   H     0.90499   0.76502   0.34929   0.00000  Uiso   1.00
C228   C     0.86865   0.06498   0.39450   0.00000  Uiso   1.00
H229   H     0.91061   0.07423   0.37768   0.00000  Uiso   1.00
N230   N     0.78740   0.03377   0.35937   0.00000  Uiso   1.00
N231   N     0.89008   0.08114   0.45301   0.00000  Uiso   1.00
C232   C     0.75456   0.02916   0.39797   0.00000  Uiso   1.00
H233   H     0.68869   1.00438   0.38193   0.00000  Uiso   1.00
C234   C     0.81772   0.05850   0.45533   0.00000  Uiso   1.00
H235   H     0.81606   0.06364   0.49728   0.00000  Uiso   1.00
C236   C     0.89994   0.27799   0.89039   0.00000  Uiso   1.00
H237   H     0.88512   0.27059   0.92943   0.00000  Uiso   1.00
N238   N     0.94430   0.35279   0.86261   0.00000  Uiso   1.00
N239   N     0.87798   0.21471   0.86441   0.00000  Uiso   1.00
C240   C     0.95111   0.33615   0.81604   0.00000  Uiso   1.00
C241   C     0.91064   0.25171   0.81719   0.00000  Uiso   1.00
H242   H     0.90225   0.21516   0.78827   0.00000  Uiso   1.00
C243   C     0.12915   0.52304   0.19176   0.00000  Uiso   1.00
H244   H     0.08823   0.46388   0.16023   0.00000  Uiso   1.00
N245   N     0.21425   0.57422   0.24025   0.00000  Uiso   1.00
N246   N     0.10238   0.55536   0.18681   0.00000  Uiso   1.00
C247   C     0.24372   0.64378   0.26781   0.00000  Uiso   1.00
H248   H     0.31056   0.69576   0.30804   0.00000  Uiso   1.00
C249   C     0.17516   0.63214   0.23503   0.00000  Uiso   1.00
H250   H     0.17302   0.67278   0.24174   0.00000  Uiso   1.00
C251   C     0.37034   0.99262   0.09920   0.00000  Uiso   1.00
H252   H     0.32191   0.93043   0.06650   0.00000  Uiso   1.00
N253   N     0.33455   1.00093   0.12258   0.00000  Uiso   1.00
N254   N     0.47367   0.07060   0.12181   0.00000  Uiso   1.00
C255   C     0.42042   0.08959   0.16269   0.00000  Uiso   1.00
H256   H     0.41403   0.11465   0.18844   0.00000  Uiso   1.00
C257   C     0.50552   0.13210   0.16238   0.00000  Uiso   1.00
H258   H     0.58548   0.20070   0.18769   0.00000  Uiso   1.00
C259   C     0.33084   0.93342   0.80515   0.00000  Uiso   1.00
H260   H     0.29929   0.91863   0.83599   0.00000  Uiso   1.00
N261   N     0.32910   0.96745   0.75601   0.00000  Uiso   1.00
N262   N     0.37694   0.92076   0.81133   0.00000  Uiso   1.00
C263   C     0.37759   0.97758   0.72940   0.00000  Uiso   1.00
H264   H     0.38880   0.00532   0.68927   0.00000  Uiso   1.00
C265   C     0.40664   0.94876   0.76316   0.00000  Uiso   1.00
H266   H     0.44652   0.94669   0.75723   0.00000  Uiso   1.00
C267   C     1.00098   0.99747   0.51192   0.00000  Uiso   1.00
N268   N     0.02588   0.98589   0.47871   0.00000  Uiso   1.00
N269   N     0.01868   0.06606   0.49844   0.00000  Uiso   1.00
C270   C     0.06112   0.05090   0.44157   0.00000  Uiso   1.00
C271   C     0.05711   0.10018   0.45378   0.00000  Uiso   1.00
C272   C     0.96730   0.47385   0.99144   0.00000  Uiso   1.00
N273   N     0.02479   0.53004   0.04635   0.00000  Uiso   1.00
N274   N     0.02494   0.51161   0.95996   0.00000  Uiso   1.00
C275   C     0.12508   0.60835   0.05003   0.00000  Uiso   1.00
C276   C     0.12519   0.59714   0.99720   0.00000  Uiso   1.00
C277   C     0.47334   0.98214   0.98956   0.00000  Uiso   1.00
N278   N     0.48864   0.95663   0.95923   0.00000  Uiso   1.00
N279   N     0.54571   0.03598   0.04491   0.00000  Uiso   1.00
C280   C     0.57610   0.99654   0.99775   0.00000  Uiso   1.00
C281   C     0.61155   0.04577   0.04994   0.00000  Uiso   1.00
H282   H     0.88489   0.40653   0.97485   0.00000  Uiso   1.00
H283   H     0.18806   0.66459   0.08997   0.00000  Uiso   1.00
H284   H     0.18806   0.64251   0.98326   0.00000  Uiso   1.00
H285   H     0.41056   0.96208   0.97159   0.00000  Uiso   1.00
H286   H     0.60582   0.98647   0.98529   0.00000  Uiso   1.00
H287   H     0.67761   0.08608   0.08995   0.00000  Uiso   1.00
H288   H     0.97002   0.95608   0.54524   0.00000  Uiso   1.00
H289   H     0.08459   0.05591   0.40899   0.00000  Uiso   1.00
H290   H     0.07967   0.15713   0.43454   0.00000  Uiso   1.00
H291   H     0.08403   0.77460   0.20733   0.00000  Uiso   1.00
H292   H     0.11100   0.72128   0.07206   0.00000  Uiso   1.00
H293   H     0.99317   0.85391   0.26449   0.00000  Uiso   1.00
H294   H     0.19598   0.06345   0.42234   0.00000  Uiso   1.00
H295   H     0.99499   0.20156   0.60495   0.00000  Uiso   1.00
H296   H     0.98453   0.38546   0.78619   0.00000  Uiso   1.00
H297   H     0.85690   0.00313   0.84923   0.00000  Uiso   1.00
H298   H     0.70559   0.03172   0.74606   0.00000  Uiso   1.00
H299   H     0.14768   0.99654   0.14952   0.00000  Uiso   1.00
H300   H     0.29340   0.03517   0.32741   0.00000  Uiso   1.00
H301   H     0.34736   0.14832   0.82313   0.00000  Uiso   1.00
H302   H     0.21652   0.06466   0.87794   0.00000  Uiso   1.00
H303   H     0.92441   0.15299   0.24370   0.00000  Uiso   1.00
H304   H     0.82191   0.07559   0.02425   0.00000  Uiso   1.00
H305   H     0.07624   0.17483   0.05998   0.00000  Uiso   1.00
H306   H     0.98318   0.81300   0.05695   0.00000  Uiso   1.00
