data_ZIF-7
_audit_creation_date              2008-03-16
_audit_creation_method            'Materials Studio'
_symmetry_space_group_name_H-M    'P1'
_symmetry_Int_Tables_number       1
_symmetry_cell_setting            triclinic
loop_
_symmetry_equiv_pos_as_xyz
  x,y,z
_cell_length_a                    14.2311
_cell_length_b                    14.3093
_cell_length_c                    14.2833
_cell_angle_alpha                 107.2162
_cell_angle_beta                  106.4045
_cell_angle_gamma                 107.1553
loop_
_atom_site_label
_atom_site_type_symbol
_atom_site_fract_x
_atom_site_fract_y
_atom_site_fract_z
_atom_site_U_iso_or_equiv
_atom_site_adp_type
_atom_site_occupancy
C1     C     0.89695   0.51223   0.16760   0.00000  Uiso   1.00
C2     C     0.16631   0.89627   0.51570   0.00000  Uiso   1.00
C3     C     0.51813   0.16433   0.89487   0.00000  Uiso   1.00
C4     C     0.10304   0.48777   0.83240   0.00000  Uiso   1.00
C5     C     0.83369   0.10372   0.48430   0.00000  Uiso   1.00
C6     C     0.48186   0.83567   0.10513   0.00000  Uiso   1.00
H7     H     0.93112   0.51049   0.10892   0.00000  Uiso   1.00
H8     H     0.10754   0.92993   0.51372   0.00000  Uiso   1.00
H9     H     0.51290   0.10438   0.92687   0.00000  Uiso   1.00
H10    H     0.06887   0.48951   0.89107   0.00000  Uiso   1.00
H11    H     0.89246   0.07007   0.48628   0.00000  Uiso   1.00
H12    H     0.48709   0.89562   0.07312   0.00000  Uiso   1.00
C13    C     0.86420   0.56962   0.30833   0.00000  Uiso   1.00
C14    C     0.30795   0.86605   0.57299   0.00000  Uiso   1.00
C15    C     0.58188   0.30686   0.86766   0.00000  Uiso   1.00
C16    C     0.13580   0.43037   0.69167   0.00000  Uiso   1.00
C17    C     0.69205   0.13394   0.42701   0.00000  Uiso   1.00
C18    C     0.41812   0.69315   0.13234   0.00000  Uiso   1.00
H19    H     0.87135   0.62510   0.38254   0.00000  Uiso   1.00
H20    H     0.38294   0.87523   0.62813   0.00000  Uiso   1.00
H21    H     0.63978   0.38132   0.87787   0.00000  Uiso   1.00
H22    H     0.12865   0.37490   0.61746   0.00000  Uiso   1.00
H23    H     0.61705   0.12476   0.37188   0.00000  Uiso   1.00
H24    H     0.36021   0.61869   0.12213   0.00000  Uiso   1.00
N25    N     0.92570   0.60162   0.25494   0.00000  Uiso   1.00
N26    N     0.25484   0.92789   0.60422   0.00000  Uiso   1.00
N27    N     0.60940   0.25119   0.92708   0.00000  Uiso   1.00
N28    N     0.07430   0.39838   0.74506   0.00000  Uiso   1.00
N29    N     0.74516   0.07211   0.39578   0.00000  Uiso   1.00
N30    N     0.39059   0.74882   0.07292   0.00000  Uiso   1.00
C31    C     0.24934   0.79859   0.46608   0.00000  Uiso   1.00
C32    C     0.47431   0.25138   0.80100   0.00000  Uiso   1.00
C33    C     0.79985   0.46153   0.25114   0.00000  Uiso   1.00
C34    C     0.75066   0.20141   0.53392   0.00000  Uiso   1.00
C35    C     0.52568   0.74862   0.19900   0.00000  Uiso   1.00
C36    C     0.20015   0.53847   0.74886   0.00000  Uiso   1.00
H37    H     0.26487   0.73896   0.41412   0.00000  Uiso   1.00
H38    H     0.42442   0.26953   0.74326   0.00000  Uiso   1.00
H39    H     0.74136   0.40877   0.26732   0.00000  Uiso   1.00
H40    H     0.73513   0.26103   0.58589   0.00000  Uiso   1.00
H41    H     0.57557   0.73047   0.25673   0.00000  Uiso   1.00
H42    H     0.25863   0.59123   0.73268   0.00000  Uiso   1.00
C43    C     0.86027   0.84034   0.27428   0.00000  Uiso   1.00
C44    C     0.27041   0.86635   0.84214   0.00000  Uiso   1.00
C45    C     0.84552   0.27013   0.86361   0.00000  Uiso   1.00
C46    C     0.13973   0.15966   0.72572   0.00000  Uiso   1.00
C47    C     0.72959   0.13365   0.15786   0.00000  Uiso   1.00
C48    C     0.15447   0.72987   0.13639   0.00000  Uiso   1.00
H49    H     0.79990   0.76790   0.26523   0.00000  Uiso   1.00
H50    H     0.25672   0.80454   0.76830   0.00000  Uiso   1.00
H51    H     0.77122   0.25713   0.80377   0.00000  Uiso   1.00
H52    H     0.20010   0.23209   0.73477   0.00000  Uiso   1.00
H53    H     0.74327   0.19546   0.23170   0.00000  Uiso   1.00
H54    H     0.22878   0.74287   0.19622   0.00000  Uiso   1.00
C55    C     0.01268   0.95546   0.29621   0.00000  Uiso   1.00
C56    C     0.30142   0.02103   0.95968   0.00000  Uiso   1.00
C57    C     0.96417   0.29824   0.01514   0.00000  Uiso   1.00
C58    C     0.98732   0.04454   0.70379   0.00000  Uiso   1.00
C59    C     0.69858   0.97897   0.04032   0.00000  Uiso   1.00
C60    C     0.03582   0.70176   0.98486   0.00000  Uiso   1.00
H61    H     0.09561   0.98727   0.30755   0.00000  Uiso   1.00
H62    H     0.31671   0.10473   0.99244   0.00000  Uiso   1.00
H63    H     0.99748   0.31119   0.09785   0.00000  Uiso   1.00
H64    H     0.90439   0.01273   0.69246   0.00000  Uiso   1.00
H65    H     0.68329   0.89527   0.00756   0.00000  Uiso   1.00
H66    H     0.00251   0.68881   0.90215   0.00000  Uiso   1.00
C67    C     0.99067   0.71036   0.05852   0.00000  Uiso   1.00
C68    C     0.06069   0.99986   0.71594   0.00000  Uiso   1.00
C69    C     0.71061   0.05148   0.99477   0.00000  Uiso   1.00
C70    C     0.00932   0.28964   0.94148   0.00000  Uiso   1.00
C71    C     0.93931   0.00014   0.28406   0.00000  Uiso   1.00
C72    C     0.28939   0.94852   0.00523   0.00000  Uiso   1.00
H73    H     0.91201   0.70677   0.05044   0.00000  Uiso   1.00
H74    H     0.05220   0.92307   0.71740   0.00000  Uiso   1.00
H75    H     0.70832   0.04139   0.91631   0.00000  Uiso   1.00
H76    H     0.08798   0.29323   0.94956   0.00000  Uiso   1.00
H77    H     0.94780   0.07693   0.28260   0.00000  Uiso   1.00
H78    H     0.29168   0.95861   0.08368   0.00000  Uiso   1.00
N79    N     0.06623   0.72822   0.15485   0.00000  Uiso   1.00
N80    N     0.15755   0.07315   0.72986   0.00000  Uiso   1.00
N81    N     0.73028   0.14977   0.06959   0.00000  Uiso   1.00
N82    N     0.93377   0.27178   0.84515   0.00000  Uiso   1.00
N83    N     0.84245   0.92685   0.27014   0.00000  Uiso   1.00
N84    N     0.26972   0.85023   0.93040   0.00000  Uiso   1.00
N85    N     0.15945   0.81811   0.42985   0.00000  Uiso   1.00
N86    N     0.43396   0.16094   0.81859   0.00000  Uiso   1.00
N87    N     0.82097   0.42519   0.16182   0.00000  Uiso   1.00
N88    N     0.84055   0.18189   0.57015   0.00000  Uiso   1.00
N89    N     0.56603   0.83906   0.18140   0.00000  Uiso   1.00
N90    N     0.17902   0.57481   0.83817   0.00000  Uiso   1.00
N91    N     0.96232   0.85396   0.29004   0.00000  Uiso   1.00
N92    N     0.28938   0.96865   0.85608   0.00000  Uiso   1.00
N93    N     0.86010   0.28585   0.96554   0.00000  Uiso   1.00
N94    N     0.03768   0.14604   0.70996   0.00000  Uiso   1.00
N95    N     0.71062   0.03135   0.14392   0.00000  Uiso   1.00
N96    N     0.13990   0.71415   0.03446   0.00000  Uiso   1.00
Zn97   Zn    0.03273   0.74899   0.28699   0.00000  Uiso   1.00
Zn98   Zn    0.28766   0.03751   0.74984   0.00000  Uiso   1.00
Zn99   Zn    0.75351   0.28051   0.03592   0.00000  Uiso   1.00
Zn100  Zn    0.96727   0.25101   0.71302   0.00000  Uiso   1.00
Zn101  Zn    0.71234   0.96249   0.25016   0.00000  Uiso   1.00
Zn102  Zn    0.24648   0.71948   0.96407   0.00000  Uiso   1.00
